
**** 11/16/21 11:55:34 ******* PSpice Lite (March 2016) ******* ID# 10813 ****

 ** Profile: "SCHEMATIC3-3"  [ G:\030\11.16\16-PSpiceFiles\SCHEMATIC3\3.sim ] 


 ****     CIRCUIT DESCRIPTION


******************************************************************************




** Creating circuit file "3.cir" 
** WARNING: THIS AUTOMATICALLY GENERATED FILE MAY BE OVERWRITTEN BY SUBSEQUENT SIMULATIONS

*Libraries: 
* Profile Libraries :
* Local Libraries :
* From [PSPICE NETLIST] section of C:\SPB_Data\cdssetup\OrCAD_PSpice\17.2.0\PSpice.ini file:
.lib "nomd.lib" 

*Analysis directives: 
.AC DEC 100 10 100K
.OPTIONS ADVCONV
.PROBE64 V(alias(*)) I(alias(*)) W(alias(*)) D(alias(*)) NOISE(alias(*)) 
.INC "..\SCHEMATIC3.net" 



**** INCLUDING SCHEMATIC3.net ****
* source 16
V_V1         N00073 0 DC 0Vdc AC 1Vac 
E_LAPLACE1         OUT1 0 LAPLACE {V(N00073)} {(1000)/((S+1000)*(S+100000))}
V_V2         N00212 0 DC 0Vdc AC 1Vac 
E_LAPLACE2         OUT2 0 LAPLACE {V(N00212)} 
+ {(1000)/((S+1000)*(S+100000)*(S+10000000))}
E_LAPLACE3         OUT3 0 LAPLACE {V(N00336)} 
+ {(1000*(S+1000000))/((S+1000)*(S+100000)(s+10000000))}
--$
ERROR(ORPSIM-16045): Invalid transfer function
V_V3         N00336 0 DC 0Vdc AC 1Vac 
E_LAPLACE4         OUT4 0 LAPLACE {V(N00462)} {(1)/(pwrs(s,2)+1)}
V_V4         N00462 0 DC 0Vdc AC 1Vac 

**** RESUMING 3.cir ****
.END
