
**** 12/07/21 10:19:31 ******* PSpice Lite (March 2016) ******* ID# 10813 ****

 ** Profile: "1-1"  [ G:\030\12.7\13_4-PSpiceFiles\1\1.sim ] 


 ****     CIRCUIT DESCRIPTION


******************************************************************************




** Creating circuit file "1.cir" 
** WARNING: THIS AUTOMATICALLY GENERATED FILE MAY BE OVERWRITTEN BY SUBSEQUENT SIMULATIONS

*Libraries: 
* Profile Libraries :
* Local Libraries :
* From [PSPICE NETLIST] section of C:\SPB_Data\cdssetup\OrCAD_PSpice\17.2.0\PSpice.ini file:
.lib "nomd.lib" 

*Analysis directives: 
.TRAN  0 50u 0 
.OPTIONS ADVCONV
.PROBE64 V(alias(*)) I(alias(*)) W(alias(*)) D(alias(*)) NOISE(alias(*)) 
.INC "..\1.net" 



**** INCLUDING 1.net ****
* source 13_4
X_U1A         CLK CLR $D_HI $D_HI Q0 M_UN0001 $G_DPWR $G_DGND 74107 PARAMS:
+ IO_LEVEL=0 MNTYMXDLY=0
X_U1B         CLK CLR Q0 Q0 Q1 M_UN0002 $G_DPWR $G_DGND 74107 PARAMS:
+ IO_LEVEL=0 MNTYMXDLY=0
X_U2A         CLK CLR N00723 N00723 Q2 M_UN0003 $G_DPWR $G_DGND 74107 PARAMS:
+ IO_LEVEL=0 MNTYMXDLY=0
X_U2B         CLK CLR N00701 N00701 Q3 M_UN0004 $G_DPWR $G_DGND 74107 PARAMS:
+ IO_LEVEL=0 MNTYMXDLY=0
X_U3A         Q0 Q1 N00723 $G_DPWR $G_DGND 7408 PARAMS:
+ IO_LEVEL=0 MNTYMXDLY=0
U_DSTM1         STIM(1,1) $G_DPWR $G_DGND CLK IO_STM IO_LEVEL=0 
+ 0 0
+ +2u 1
+REPEAT FOREVER
+ +.5uS 0
+  +.5uS 1
+ ENDREPEAT
U_DSTM2         STIM(1,1)
+ $G_DPWR $G_DGND
+ CLR 
+ IO_STM
+ IO_LEVEL=0
+ TIMESTEP=1u 
+ 0s 0  
+ 5c 1  
X_U4A         Q0 Q1 Q2 N00701 $G_DPWR $G_DGND 7411 PARAMS:
+ IO_LEVEL=0 MNTYMXDLY=0

**** RESUMING 1.cir ****
.END

**** 12/07/21 10:19:31 ******* PSpice Lite (March 2016) ******* ID# 10813 ****

 ** Profile: "1-1"  [ G:\030\12.7\13_4-PSpiceFiles\1\1.sim ] 


 ****     Digital Gate MODEL PARAMETERS


******************************************************************************




               D0_GATE         D_107_4         D_107_3         D_08            
      TPLHMN    0               6.000000E-09    2.400000E-09    7.000000E-09 
      TPLHTY    0               6.000000E-09    6.000000E-09   17.500000E-09 
      TPLHMX    0               6.000000E-09    6.000000E-09   27.000000E-09 
      TPHLMN    0               0               2.400000E-09    4.800000E-09 
      TPHLTY    0               0               6.000000E-09   12.000000E-09 
      TPHLMX    0               0               6.000000E-09   19.000000E-09 


               D_11            
      TPLHMN    6.750000E-09 
      TPLHTY   16.875000E-09 
      TPLHMX   27.000000E-09 
      TPHLMN    4.750000E-09 
      TPHLTY   11.875000E-09 
      TPHLMX   19.000000E-09 


**** 12/07/21 10:19:31 ******* PSpice Lite (March 2016) ******* ID# 10813 ****

 ** Profile: "1-1"  [ G:\030\12.7\13_4-PSpiceFiles\1\1.sim ] 


 ****     Digital Edge Triggered FF MODEL PARAMETERS


******************************************************************************




               D_107_1         D_107_2         
  TPCLKQLHMN    4.000000E-09    4.000000E-09 
  TPCLKQLHTY   10.000000E-09   10.000000E-09 
  TPCLKQLHMX   16.000000E-09   19.000000E-09 
  TPCLKQHLMN    7.200000E-09    7.600000E-09 
  TPCLKQHLTY   18.000000E-09   19.000000E-09 
  TPCLKQHLMX   28.000000E-09   34.000000E-09 
   TPPCQLHMN    4.000000E-09    4.000000E-09 
   TPPCQLHTY   10.000000E-09   10.000000E-09 
   TPPCQLHMX   15.000000E-09   19.000000E-09 
   TPPCQHLMN    4.000000E-09    7.600000E-09 
   TPPCQHLTY   10.000000E-09   19.000000E-09 
   TPPCQHLMX   15.000000E-09   34.000000E-09 
    TWCLKLMN    0               0            
    TWCLKLTY   20.000000E-09   20.000000E-09 
    TWCLKLMX   20.000000E-09   20.000000E-09 
    TWCLKHMN    0               0            
    TWCLKHTY   20.000000E-09   20.000000E-09 
    TWCLKHMX   20.000000E-09   20.000000E-09 
     TWPCLMN    0               0            
     TWPCLTY   20.000000E-09   20.000000E-09 
     TWPCLMX   20.000000E-09   20.000000E-09 
   TSUDCLKMN    0               0            
   TSUDCLKTY   20.000000E-09   20.000000E-09 
   TSUDCLKMX   10.000000E-09   10.000000E-09 
 TSUPCCLKHMN    0               0            
 TSUPCCLKHTY    0               0            
 TSUPCCLKHMX    0               0            
    THDCLKMN    0               0            
    THDCLKTY    6.000000E-09    6.000000E-09 
    THDCLKMX    6.000000E-09    6.000000E-09 
  TSUCECLKMN    0               0            
  TSUCECLKTY    0               0            
  TSUCECLKMX    0               0            
   THCECLKMN    0               0            
   THCECLKTY    0               0            
   THCECLKMX    0               0            


**** 12/07/21 10:19:31 ******* PSpice Lite (March 2016) ******* ID# 10813 ****

 ** Profile: "1-1"  [ G:\030\12.7\13_4-PSpiceFiles\1\1.sim ] 


 ****     Digital IO  MODEL PARAMETERS


******************************************************************************




               IO_STM          IO_STD          
        DRVL    0             104            
        DRVH    0              96.4          
       AtoD1                 AtoD_STD        
       AtoD2                 AtoD_STD_NX     
       AtoD3                 AtoD_STD        
       AtoD4                 AtoD_STD_NX     
       DtoA1 DtoA_STM        DtoA_STD        
       DtoA2 DtoA_STM        DtoA_STD        
       DtoA3 DtoA_STM        DtoA_STD        
       DtoA4 DtoA_STM        DtoA_STD        
      TSWHL1                    1.511000E-09 
      TSWHL2                    1.487000E-09 
      TSWHL3                    1.511000E-09 
      TSWHL4                    1.487000E-09 
      TSWLH1                    3.517000E-09 
      TSWLH2                    3.564000E-09 
      TSWLH3                    3.517000E-09 
      TSWLH4                    3.564000E-09 
       TPWRT  100.000000E+03  100.000000E+03 



          JOB CONCLUDED

**** 12/07/21 10:19:31 ******* PSpice Lite (March 2016) ******* ID# 10813 ****

 ** Profile: "1-1"  [ G:\030\12.7\13_4-PSpiceFiles\1\1.sim ] 


 ****     JOB STATISTICS SUMMARY


******************************************************************************



  Total job time                    =         .03
