
**** 11/08/21 22:28:11 ******* PSpice Lite (March 2016) ******* ID# 10813 ****

 ** Profile: "SCHEMATIC1-2"  [ D:\Software\Capture_PSpice\Project\Monte Carlo analysis\Monte Carlo analysis-PSpiceFiles\SCHEMATIC1\2.


 ****     CIRCUIT DESCRIPTION


******************************************************************************




** Creating circuit file "2.cir" 
** WARNING: THIS AUTOMATICALLY GENERATED FILE MAY BE OVERWRITTEN BY SUBSEQUENT SIMULATIONS

*Libraries: 
* Profile Libraries :
* Local Libraries :
* From [PSPICE NETLIST] section of C:\SPB_Data\cdssetup\OrCAD_PSpice\17.2.0\PSpice.ini file:
.lib "nomd.lib" 

*Analysis directives: 
.AC DEC 100 0.1 10k
.MC 200 AC V([OUT]) YMAX OUTPUT ALL 
.OPTIONS DISTRIBUTION GAUSS
.OPTIONS ADVCONV
.PROBE64 V(alias(*)) I(alias(*)) W(alias(*)) D(alias(*)) NOISE(alias(*)) 
.INC "..\SCHEMATIC1.net" 



**** INCLUDING SCHEMATIC1.net ****
* source MONTE CARLO ANALYSIS
V_V2         +12V 0 12Vdc
V_V3         -12V 0 -12Vdc
X_U1         N00283 N00287 +12V -12V N00304 uA741
R_R1         0 N00287 R_R1 1k TC=0,0 
.model        R_R1 RES R=1 DEV=10% TC1=0 TC2=0
R_R4         N00279 N00283 R_R4 1k TC=0,0 
.model        R_R4 RES R=1 DEV=10% TC1=0 TC2=0
R_R3         N00272 N00279 R_R3 1k TC=0,0 
.model        R_R3 RES R=1 DEV=10% TC1=0 TC2=0
R_R2         N00287 N00304 R_R2 1k TC=0,0 
.model        R_R2 RES R=1 DEV=10% TC1=0 TC2=0
C_C2         0 N00283 C_C2 1u  TC=0,0 
.model        C_C2 CAP C=1 DEV=5% TC1=0 TC2=0 VC1=0 VC2=0
C_C1         N00304 N00279 C_C1 1u  TC=0,0 
.model        C_C1 CAP C=1 DEV=5% TC1=0 TC2=0 VC1=0 VC2=0
V_V1         0 N00272 DC 0Vdc AC 1Vac 

**** RESUMING 2.cir ****
.END

ERROR(ORPSIM-15140): Node OUT is undefined

ERROR(ORPSIM-15142): Node OUT is floating
