
**** 11/08/21 22:28:36 ******* PSpice Lite (March 2016) ******* ID# 10813 ****

 ** Profile: "SCHEMATIC1-2"  [ D:\Software\Capture_PSpice\Project\Monte Carlo analysis\Monte Carlo analysis-PSpiceFiles\SCHEMATIC1\2.


 ****     CIRCUIT DESCRIPTION


******************************************************************************




** Creating circuit file "2.cir" 
** WARNING: THIS AUTOMATICALLY GENERATED FILE MAY BE OVERWRITTEN BY SUBSEQUENT SIMULATIONS

*Libraries: 
* Profile Libraries :
* Local Libraries :
* From [PSPICE NETLIST] section of C:\SPB_Data\cdssetup\OrCAD_PSpice\17.2.0\PSpice.ini file:
.lib "nomd.lib" 

*Analysis directives: 
.AC DEC 100 0.1 10k
.MC 200 AC V([OUT]) YMAX OUTPUT ALL 
.OPTIONS DISTRIBUTION GAUSS
.OPTIONS ADVCONV
.PROBE64 V(alias(*)) I(alias(*)) W(alias(*)) D(alias(*)) NOISE(alias(*)) 
.INC "..\SCHEMATIC1.net" 



**** INCLUDING SCHEMATIC1.net ****
* source MONTE CARLO ANALYSIS
V_V2         +12V 0 12Vdc
V_V3         -12V 0 -12Vdc
X_U1         N00283 N00287 +12V -12V OUT uA741
R_R1         0 N00287 R_R1 1k TC=0,0 
.model        R_R1 RES R=1 DEV=10% TC1=0 TC2=0
R_R4         N00279 N00283 R_R4 1k TC=0,0 
.model        R_R4 RES R=1 DEV=10% TC1=0 TC2=0
R_R3         N00272 N00279 R_R3 1k TC=0,0 
.model        R_R3 RES R=1 DEV=10% TC1=0 TC2=0
R_R2         N00287 OUT R_R2 1k TC=0,0 
.model        R_R2 RES R=1 DEV=10% TC1=0 TC2=0
C_C2         0 N00283 C_C2 1u  TC=0,0 
.model        C_C2 CAP C=1 DEV=5% TC1=0 TC2=0 VC1=0 VC2=0
C_C1         OUT N00279 C_C1 1u  TC=0,0 
.model        C_C1 CAP C=1 DEV=5% TC1=0 TC2=0 VC1=0 VC2=0
V_V1         0 N00272 DC 0Vdc AC 1Vac 

**** RESUMING 2.cir ****
.END

**** 11/08/21 22:28:36 ******* PSpice Lite (March 2016) ******* ID# 10813 ****

 ** Profile: "SCHEMATIC1-2"  [ D:\Software\Capture_PSpice\Project\Monte Carlo analysis\Monte Carlo analysis-PSpiceFiles\SCHEMATIC1\2.


 ****     Diode MODEL PARAMETERS


******************************************************************************




               X_U1.dx         X_U1.dy         
          IS  800.000000E-18  800.000000E-18 
          RS    1               1.000000E-03 
         CJO                   10.000000E-12 


**** 11/08/21 22:28:36 ******* PSpice Lite (March 2016) ******* ID# 10813 ****

 ** Profile: "SCHEMATIC1-2"  [ D:\Software\Capture_PSpice\Project\Monte Carlo analysis\Monte Carlo analysis-PSpiceFiles\SCHEMATIC1\2.


 ****     BJT MODEL PARAMETERS


******************************************************************************




               X_U1.qx         
               NPN             
       LEVEL    1            
          IS  800.000000E-18 
          BF   93.75         
          NF    1            
          BR    1            
          NR    1            
         ISS    0            
          RE    0            
          RC    0            
         CJE    0            
         VJE     .75         
         CJC    0            
         VJC     .75         
         MJC     .33         
        XCJC    1            
         CJS    0            
         VJS     .75         
          KF    0            
          AF    1            
          CN    2.42         
           D     .87         


**** 11/08/21 22:28:36 ******* PSpice Lite (March 2016) ******* ID# 10813 ****

 ** Profile: "SCHEMATIC1-2"  [ D:\Software\Capture_PSpice\Project\Monte Carlo analysis\Monte Carlo analysis-PSpiceFiles\SCHEMATIC1\2.


 ****     Resistor MODEL PARAMETERS


******************************************************************************




               R_R1            R_R4            R_R3            R_R2            
           R    1               1               1               1            


**** 11/08/21 22:28:36 ******* PSpice Lite (March 2016) ******* ID# 10813 ****

 ** Profile: "SCHEMATIC1-2"  [ D:\Software\Capture_PSpice\Project\Monte Carlo analysis\Monte Carlo analysis-PSpiceFiles\SCHEMATIC1\2.


 ****     Capacitor MODEL PARAMETERS


******************************************************************************




               C_C2            C_C1            
           C    1               1            


**** 11/08/21 22:28:36 ******* PSpice Lite (March 2016) ******* ID# 10813 ****

 ** Profile: "SCHEMATIC1-2"  [ D:\Software\Capture_PSpice\Project\Monte Carlo analysis\Monte Carlo analysis-PSpiceFiles\SCHEMATIC1\2.


 ****     SMALL SIGNAL BIAS SOLUTION       TEMPERATURE =   27.000 DEG C

                      MONTE CARLO NOMINAL

******************************************************************************



 NODE   VOLTAGE     NODE   VOLTAGE     NODE   VOLTAGE     NODE   VOLTAGE


(  OUT)-200.6E-06  ( +12V)   12.0000  ( -12V)  -12.0000  (N00272)    0.0000     

(N00279)-79.73E-06 (N00283)-159.5E-06 (N00287)-140.2E-06 (X_U1.6) 19.43E-09     

(X_U1.7)-203.6E-06 (X_U1.8)-203.6E-06 (X_U1.9)    0.0000 (X_U1.10)    -.6078    

(X_U1.11)   11.9600                   (X_U1.12)   11.9600                       

(X_U1.13)    -.5939                   (X_U1.14)    -.5940                       

(X_U1.53)   11.0000                   (X_U1.54)  -11.0000                       

(X_U1.90)-60.43E-06                   (X_U1.91)   40.0000                       

(X_U1.92)  -40.0000                   (X_U1.99)    0.0000                   




    VOLTAGE SOURCE CURRENTS
    NAME         CURRENT

    V_V2        -1.337E-03
    V_V3         1.337E-03
    V_V1         7.973E-08
    X_U1.vb      1.943E-13
    X_U1.vc      1.100E-11
    X_U1.ve      1.251E-11
    X_U1.vlim   -6.043E-08
    X_U1.vlp    -4.000E-11
    X_U1.vln    -4.000E-11

    TOTAL POWER DISSIPATION   3.21E-02  WATTS


**** 11/08/21 22:28:36 ******* PSpice Lite (March 2016) ******* ID# 10813 ****

 ** Profile: "SCHEMATIC1-2"  [ D:\Software\Capture_PSpice\Project\Monte Carlo analysis\Monte Carlo analysis-PSpiceFiles\SCHEMATIC1\2.


 ****     SMALL SIGNAL BIAS SOLUTION       TEMPERATURE =   27.000 DEG C

                      MONTE CARLO PASS 2

******************************************************************************



 NODE   VOLTAGE     NODE   VOLTAGE     NODE   VOLTAGE     NODE   VOLTAGE


(  OUT)-177.0E-06  ( +12V)   12.0000  ( -12V)  -12.0000  (N00272)    0.0000     

(N00279)-73.50E-06 (N00283)-155.9E-06 (N00287)-136.6E-06 (X_U1.6) 17.08E-09     

(X_U1.7)-179.4E-06 (X_U1.8)-179.4E-06 (X_U1.9)    0.0000 (X_U1.10)    -.6078    

(X_U1.11)   11.9600                   (X_U1.12)   11.9600                       

(X_U1.13)    -.5939                   (X_U1.14)    -.5939                       

(X_U1.53)   11.0000                   (X_U1.54)  -11.0000                       

(X_U1.90)-46.99E-06                   (X_U1.91)   40.0000                       

(X_U1.92)  -40.0000                   (X_U1.99)    0.0000                   




    VOLTAGE SOURCE CURRENTS
    NAME         CURRENT

    V_V2        -1.337E-03
    V_V3         1.337E-03
    V_V1         7.973E-08
    X_U1.vb      1.708E-13
    X_U1.vc      1.100E-11
    X_U1.ve      1.251E-11
    X_U1.vlim   -4.699E-08
    X_U1.vlp    -4.000E-11
    X_U1.vln    -4.000E-11

    TOTAL POWER DISSIPATION   3.21E-02  WATTS


**** 11/08/21 22:28:36 ******* PSpice Lite (March 2016) ******* ID# 10813 ****

 ** Profile: "SCHEMATIC1-2"  [ D:\Software\Capture_PSpice\Project\Monte Carlo analysis\Monte Carlo analysis-PSpiceFiles\SCHEMATIC1\2.


 ****     SMALL SIGNAL BIAS SOLUTION       TEMPERATURE =   27.000 DEG C

                      MONTE CARLO PASS 3

******************************************************************************



 NODE   VOLTAGE     NODE   VOLTAGE     NODE   VOLTAGE     NODE   VOLTAGE


(  OUT)-213.2E-06  ( +12V)   12.0000  ( -12V)  -12.0000  (N00272)    0.0000     

(N00279)-89.37E-06 (N00283)-164.2E-06 (N00287)-144.9E-06 (X_U1.6) 20.70E-09     

(X_U1.7)-216.3E-06 (X_U1.8)-216.3E-06 (X_U1.9)    0.0000 (X_U1.10)    -.6078    

(X_U1.11)   11.9600                   (X_U1.12)   11.9600                       

(X_U1.13)    -.5939                   (X_U1.14)    -.5940                       

(X_U1.53)   11.0000                   (X_U1.54)  -11.0000                       

(X_U1.90)-61.30E-06                   (X_U1.91)   40.0000                       

(X_U1.92)  -40.0000                   (X_U1.99)    0.0000                   




    VOLTAGE SOURCE CURRENTS
    NAME         CURRENT

    V_V2        -1.337E-03
    V_V3         1.337E-03
    V_V1         7.973E-08
    X_U1.vb      2.070E-13
    X_U1.vc      1.100E-11
    X_U1.ve      1.251E-11
    X_U1.vlim   -6.130E-08
    X_U1.vlp    -4.000E-11
    X_U1.vln    -4.000E-11

    TOTAL POWER DISSIPATION   3.21E-02  WATTS


**** 11/08/21 22:28:36 ******* PSpice Lite (March 2016) ******* ID# 10813 ****

 ** Profile: "SCHEMATIC1-2"  [ D:\Software\Capture_PSpice\Project\Monte Carlo analysis\Monte Carlo analysis-PSpiceFiles\SCHEMATIC1\2.


 ****     SMALL SIGNAL BIAS SOLUTION       TEMPERATURE =   27.000 DEG C

                      MONTE CARLO PASS 4

******************************************************************************



 NODE   VOLTAGE     NODE   VOLTAGE     NODE   VOLTAGE     NODE   VOLTAGE


(  OUT)-169.8E-06  ( +12V)   12.0000  ( -12V)  -12.0000  (N00272)    0.0000     

(N00279)-75.84E-06 (N00283)-139.1E-06 (N00287)-119.8E-06 (X_U1.6) 16.37E-09     

(X_U1.7)-172.0E-06 (X_U1.8)-172.0E-06 (X_U1.9)    0.0000 (X_U1.10)    -.6078    

(X_U1.11)   11.9600                   (X_U1.12)   11.9600                       

(X_U1.13)    -.5939                   (X_U1.14)    -.5939                       

(X_U1.53)   11.0000                   (X_U1.54)  -11.0000                       

(X_U1.90)-44.80E-06                   (X_U1.91)   40.0000                       

(X_U1.92)  -40.0000                   (X_U1.99)    0.0000                   




    VOLTAGE SOURCE CURRENTS
    NAME         CURRENT

    V_V2        -1.337E-03
    V_V3         1.337E-03
    V_V1         7.973E-08
    X_U1.vb      1.637E-13
    X_U1.vc      1.100E-11
    X_U1.ve      1.251E-11
    X_U1.vlim   -4.480E-08
    X_U1.vlp    -4.000E-11
    X_U1.vln    -4.000E-11

    TOTAL POWER DISSIPATION   3.21E-02  WATTS


**** 11/08/21 22:28:36 ******* PSpice Lite (March 2016) ******* ID# 10813 ****

 ** Profile: "SCHEMATIC1-2"  [ D:\Software\Capture_PSpice\Project\Monte Carlo analysis\Monte Carlo analysis-PSpiceFiles\SCHEMATIC1\2.


 ****     SMALL SIGNAL BIAS SOLUTION       TEMPERATURE =   27.000 DEG C

                      MONTE CARLO PASS 5

******************************************************************************



 NODE   VOLTAGE     NODE   VOLTAGE     NODE   VOLTAGE     NODE   VOLTAGE


(  OUT)-206.0E-06  ( +12V)   12.0000  ( -12V)  -12.0000  (N00272)    0.0000     

(N00279)-82.91E-06 (N00283)-166.3E-06 (N00287)-147.1E-06 (X_U1.6) 20.05E-09     

(X_U1.7)-209.2E-06 (X_U1.8)-209.2E-06 (X_U1.9)    0.0000 (X_U1.10)    -.6078    

(X_U1.11)   11.9600                   (X_U1.12)   11.9600                       

(X_U1.13)    -.5940                   (X_U1.14)    -.5940                       

(X_U1.53)   11.0000                   (X_U1.54)  -11.0000                       

(X_U1.90)-63.51E-06                   (X_U1.91)   40.0000                       

(X_U1.92)  -40.0000                   (X_U1.99)    0.0000                   




    VOLTAGE SOURCE CURRENTS
    NAME         CURRENT

    V_V2        -1.337E-03
    V_V3         1.337E-03
    V_V1         7.973E-08
    X_U1.vb      2.005E-13
    X_U1.vc      1.100E-11
    X_U1.ve      1.251E-11
    X_U1.vlim   -6.351E-08
    X_U1.vlp    -4.000E-11
    X_U1.vln    -4.000E-11

    TOTAL POWER DISSIPATION   3.21E-02  WATTS


**** 11/08/21 22:28:36 ******* PSpice Lite (March 2016) ******* ID# 10813 ****

 ** Profile: "SCHEMATIC1-2"  [ D:\Software\Capture_PSpice\Project\Monte Carlo analysis\Monte Carlo analysis-PSpiceFiles\SCHEMATIC1\2.


 ****     SMALL SIGNAL BIAS SOLUTION       TEMPERATURE =   27.000 DEG C

                      MONTE CARLO PASS 6

******************************************************************************



 NODE   VOLTAGE     NODE   VOLTAGE     NODE   VOLTAGE     NODE   VOLTAGE


(  OUT)-214.6E-06  ( +12V)   12.0000  ( -12V)  -12.0000  (N00272)    0.0000     

(N00279)-80.23E-06 (N00283)-174.0E-06 (N00287)-154.8E-06 (X_U1.6) 20.80E-09     

(X_U1.7)-217.6E-06 (X_U1.8)-217.6E-06 (X_U1.9)    0.0000 (X_U1.10)    -.6078    

(X_U1.11)   11.9600                   (X_U1.12)   11.9600                       

(X_U1.13)    -.5940                   (X_U1.14)    -.5940                       

(X_U1.53)   11.0000                   (X_U1.54)  -11.0000                       

(X_U1.90)-59.32E-06                   (X_U1.91)   40.0000                       

(X_U1.92)  -40.0000                   (X_U1.99)    0.0000                   




    VOLTAGE SOURCE CURRENTS
    NAME         CURRENT

    V_V2        -1.337E-03
    V_V3         1.337E-03
    V_V1         7.973E-08
    X_U1.vb      2.080E-13
    X_U1.vc      1.100E-11
    X_U1.ve      1.251E-11
    X_U1.vlim   -5.932E-08
    X_U1.vlp    -4.000E-11
    X_U1.vln    -4.000E-11

    TOTAL POWER DISSIPATION   3.21E-02  WATTS


**** 11/08/21 22:28:36 ******* PSpice Lite (March 2016) ******* ID# 10813 ****

 ** Profile: "SCHEMATIC1-2"  [ D:\Software\Capture_PSpice\Project\Monte Carlo analysis\Monte Carlo analysis-PSpiceFiles\SCHEMATIC1\2.


 ****     SMALL SIGNAL BIAS SOLUTION       TEMPERATURE =   27.000 DEG C

                      MONTE CARLO PASS 7

******************************************************************************



 NODE   VOLTAGE     NODE   VOLTAGE     NODE   VOLTAGE     NODE   VOLTAGE


(  OUT)-171.6E-06  ( +12V)   12.0000  ( -12V)  -12.0000  (N00272)    0.0000     

(N00279)-65.30E-06 (N00283)-151.8E-06 (N00287)-132.5E-06 (X_U1.6) 16.50E-09     

(X_U1.7)-173.7E-06 (X_U1.8)-173.7E-06 (X_U1.9)    0.0000 (X_U1.10)    -.6078    

(X_U1.11)   11.9600                   (X_U1.12)   11.9600                       

(X_U1.13)    -.5939                   (X_U1.14)    -.5939                       

(X_U1.53)   11.0000                   (X_U1.54)  -11.0000                       

(X_U1.90)-42.09E-06                   (X_U1.91)   40.0000                       

(X_U1.92)  -40.0000                   (X_U1.99)    0.0000                   




    VOLTAGE SOURCE CURRENTS
    NAME         CURRENT

    V_V2        -1.337E-03
    V_V3         1.337E-03
    V_V1         7.973E-08
    X_U1.vb      1.650E-13
    X_U1.vc      1.100E-11
    X_U1.ve      1.251E-11
    X_U1.vlim   -4.209E-08
    X_U1.vlp    -4.000E-11
    X_U1.vln    -4.000E-11

    TOTAL POWER DISSIPATION   3.21E-02  WATTS


**** 11/08/21 22:28:36 ******* PSpice Lite (March 2016) ******* ID# 10813 ****

 ** Profile: "SCHEMATIC1-2"  [ D:\Software\Capture_PSpice\Project\Monte Carlo analysis\Monte Carlo analysis-PSpiceFiles\SCHEMATIC1\2.


 ****     SMALL SIGNAL BIAS SOLUTION       TEMPERATURE =   27.000 DEG C

                      MONTE CARLO PASS 8

******************************************************************************



 NODE   VOLTAGE     NODE   VOLTAGE     NODE   VOLTAGE     NODE   VOLTAGE


(  OUT)-204.2E-06  ( +12V)   12.0000  ( -12V)  -12.0000  (N00272)    0.0000     

(N00279)-88.48E-06 (N00283)-157.9E-06 (N00287)-138.7E-06 (X_U1.6) 19.87E-09     

(X_U1.7)-207.4E-06 (X_U1.8)-207.4E-06 (X_U1.9)    0.0000 (X_U1.10)    -.6078    

(X_U1.11)   11.9600                   (X_U1.12)   11.9600                       

(X_U1.13)    -.5939                   (X_U1.14)    -.5939                       

(X_U1.53)   11.0000                   (X_U1.54)  -11.0000                       

(X_U1.90)-62.71E-06                   (X_U1.91)   40.0000                       

(X_U1.92)  -40.0000                   (X_U1.99)    0.0000                   




    VOLTAGE SOURCE CURRENTS
    NAME         CURRENT

    V_V2        -1.337E-03
    V_V3         1.337E-03
    V_V1         7.973E-08
    X_U1.vb      1.987E-13
    X_U1.vc      1.100E-11
    X_U1.ve      1.251E-11
    X_U1.vlim   -6.271E-08
    X_U1.vlp    -4.000E-11
    X_U1.vln    -4.000E-11

    TOTAL POWER DISSIPATION   3.21E-02  WATTS


**** 11/08/21 22:28:36 ******* PSpice Lite (March 2016) ******* ID# 10813 ****

 ** Profile: "SCHEMATIC1-2"  [ D:\Software\Capture_PSpice\Project\Monte Carlo analysis\Monte Carlo analysis-PSpiceFiles\SCHEMATIC1\2.


 ****     SMALL SIGNAL BIAS SOLUTION       TEMPERATURE =   27.000 DEG C

                      MONTE CARLO PASS 9

******************************************************************************



 NODE   VOLTAGE     NODE   VOLTAGE     NODE   VOLTAGE     NODE   VOLTAGE


(  OUT)-188.8E-06  ( +12V)   12.0000  ( -12V)  -12.0000  (N00272)    0.0000     

(N00279)-74.67E-06 (N00283)-163.5E-06 (N00287)-144.2E-06 (X_U1.6) 18.13E-09     

(X_U1.7)-190.9E-06 (X_U1.8)-190.9E-06 (X_U1.9)    0.0000 (X_U1.10)    -.6078    

(X_U1.11)   11.9600                   (X_U1.12)   11.9600                       

(X_U1.13)    -.5939                   (X_U1.14)    -.5940                       

(X_U1.53)   11.0000                   (X_U1.54)  -11.0000                       

(X_U1.90)-42.10E-06                   (X_U1.91)   40.0000                       

(X_U1.92)  -40.0000                   (X_U1.99)    0.0000                   




    VOLTAGE SOURCE CURRENTS
    NAME         CURRENT

    V_V2        -1.337E-03
    V_V3         1.337E-03
    V_V1         7.973E-08
    X_U1.vb      1.813E-13
    X_U1.vc      1.100E-11
    X_U1.ve      1.251E-11
    X_U1.vlim   -4.210E-08
    X_U1.vlp    -4.000E-11
    X_U1.vln    -4.000E-11

    TOTAL POWER DISSIPATION   3.21E-02  WATTS


**** 11/08/21 22:28:36 ******* PSpice Lite (March 2016) ******* ID# 10813 ****

 ** Profile: "SCHEMATIC1-2"  [ D:\Software\Capture_PSpice\Project\Monte Carlo analysis\Monte Carlo analysis-PSpiceFiles\SCHEMATIC1\2.


 ****     SMALL SIGNAL BIAS SOLUTION       TEMPERATURE =   27.000 DEG C

                      MONTE CARLO PASS 10

******************************************************************************



 NODE   VOLTAGE     NODE   VOLTAGE     NODE   VOLTAGE     NODE   VOLTAGE


(  OUT)-192.3E-06  ( +12V)   12.0000  ( -12V)  -12.0000  (N00272)    0.0000     

(N00279)-72.62E-06 (N00283)-148.5E-06 (N00287)-129.2E-06 (X_U1.6) 18.74E-09     

(X_U1.7)-195.4E-06 (X_U1.8)-195.4E-06 (X_U1.9)    0.0000 (X_U1.10)    -.6078    

(X_U1.11)   11.9600                   (X_U1.12)   11.9600                       

(X_U1.13)    -.5939                   (X_U1.14)    -.5939                       

(X_U1.53)   11.0000                   (X_U1.54)  -11.0000                       

(X_U1.90)-61.97E-06                   (X_U1.91)   40.0000                       

(X_U1.92)  -40.0000                   (X_U1.99)    0.0000                   




    VOLTAGE SOURCE CURRENTS
    NAME         CURRENT

    V_V2        -1.337E-03
    V_V3         1.337E-03
    V_V1         7.973E-08
    X_U1.vb      1.874E-13
    X_U1.vc      1.100E-11
    X_U1.ve      1.251E-11
    X_U1.vlim   -6.197E-08
    X_U1.vlp    -4.000E-11
    X_U1.vln    -4.000E-11

    TOTAL POWER DISSIPATION   3.21E-02  WATTS


**** 11/08/21 22:28:36 ******* PSpice Lite (March 2016) ******* ID# 10813 ****

 ** Profile: "SCHEMATIC1-2"  [ D:\Software\Capture_PSpice\Project\Monte Carlo analysis\Monte Carlo analysis-PSpiceFiles\SCHEMATIC1\2.


 ****     SMALL SIGNAL BIAS SOLUTION       TEMPERATURE =   27.000 DEG C

                      MONTE CARLO PASS 11

******************************************************************************



 NODE   VOLTAGE     NODE   VOLTAGE     NODE   VOLTAGE     NODE   VOLTAGE


(  OUT)-205.3E-06  ( +12V)   12.0000  ( -12V)  -12.0000  (N00272)    0.0000     

(N00279)-91.31E-06 (N00283)-159.4E-06 (N00287)-140.2E-06 (X_U1.6) 19.89E-09     

(X_U1.7)-208.2E-06 (X_U1.8)-208.2E-06 (X_U1.9)    0.0000 (X_U1.10)    -.6078    

(X_U1.11)   11.9600                   (X_U1.12)   11.9600                       

(X_U1.13)    -.5939                   (X_U1.14)    -.5940                       

(X_U1.53)   11.0000                   (X_U1.54)  -11.0000                       

(X_U1.90)-56.77E-06                   (X_U1.91)   40.0000                       

(X_U1.92)  -40.0000                   (X_U1.99)    0.0000                   




    VOLTAGE SOURCE CURRENTS
    NAME         CURRENT

    V_V2        -1.337E-03
    V_V3         1.337E-03
    V_V1         7.973E-08
    X_U1.vb      1.989E-13
    X_U1.vc      1.100E-11
    X_U1.ve      1.251E-11
    X_U1.vlim   -5.677E-08
    X_U1.vlp    -4.000E-11
    X_U1.vln    -4.000E-11

    TOTAL POWER DISSIPATION   3.21E-02  WATTS


**** 11/08/21 22:28:36 ******* PSpice Lite (March 2016) ******* ID# 10813 ****

 ** Profile: "SCHEMATIC1-2"  [ D:\Software\Capture_PSpice\Project\Monte Carlo analysis\Monte Carlo analysis-PSpiceFiles\SCHEMATIC1\2.


 ****     SMALL SIGNAL BIAS SOLUTION       TEMPERATURE =   27.000 DEG C

                      MONTE CARLO PASS 12

******************************************************************************



 NODE   VOLTAGE     NODE   VOLTAGE     NODE   VOLTAGE     NODE   VOLTAGE


(  OUT)-245.5E-06  ( +12V)   12.0000  ( -12V)  -12.0000  (N00272)    0.0000     

(N00279)-83.26E-06 (N00283)-169.4E-06 (N00287)-150.1E-06 (X_U1.6) 24.13E-09     

(X_U1.7)-249.9E-06 (X_U1.8)-249.9E-06 (X_U1.9)    0.0000 (X_U1.10)    -.6078    

(X_U1.11)   11.9600                   (X_U1.12)   11.9600                       

(X_U1.13)    -.5940                   (X_U1.14)    -.5940                       

(X_U1.53)   11.0000                   (X_U1.54)  -11.0000                       

(X_U1.90)-88.57E-06                   (X_U1.91)   40.0000                       

(X_U1.92)  -40.0000                   (X_U1.99)    0.0000                   




    VOLTAGE SOURCE CURRENTS
    NAME         CURRENT

    V_V2        -1.337E-03
    V_V3         1.337E-03
    V_V1         7.973E-08
    X_U1.vb      2.413E-13
    X_U1.vc      1.100E-11
    X_U1.ve      1.251E-11
    X_U1.vlim   -8.857E-08
    X_U1.vlp    -4.000E-11
    X_U1.vln    -4.000E-11

    TOTAL POWER DISSIPATION   3.21E-02  WATTS


**** 11/08/21 22:28:36 ******* PSpice Lite (March 2016) ******* ID# 10813 ****

 ** Profile: "SCHEMATIC1-2"  [ D:\Software\Capture_PSpice\Project\Monte Carlo analysis\Monte Carlo analysis-PSpiceFiles\SCHEMATIC1\2.


 ****     SMALL SIGNAL BIAS SOLUTION       TEMPERATURE =   27.000 DEG C

                      MONTE CARLO PASS 13

******************************************************************************



 NODE   VOLTAGE     NODE   VOLTAGE     NODE   VOLTAGE     NODE   VOLTAGE


(  OUT)-144.7E-06  ( +12V)   12.0000  ( -12V)  -12.0000  (N00272)    0.0000     

(N00279)-64.51E-06 (N00283)-134.7E-06 (N00287)-115.5E-06 (X_U1.6) 13.78E-09     

(X_U1.7)-146.1E-06 (X_U1.8)-146.1E-06 (X_U1.9)    0.0000 (X_U1.10)    -.6078    

(X_U1.11)   11.9600                   (X_U1.12)   11.9600                       

(X_U1.13)    -.5939                   (X_U1.14)    -.5939                       

(X_U1.53)   11.0000                   (X_U1.54)  -11.0000                       

(X_U1.90)-29.58E-06                   (X_U1.91)   40.0000                       

(X_U1.92)  -40.0000                   (X_U1.99)    0.0000                   




    VOLTAGE SOURCE CURRENTS
    NAME         CURRENT

    V_V2        -1.337E-03
    V_V3         1.337E-03
    V_V1         7.973E-08
    X_U1.vb      1.378E-13
    X_U1.vc      1.100E-11
    X_U1.ve      1.251E-11
    X_U1.vlim   -2.958E-08
    X_U1.vlp    -4.000E-11
    X_U1.vln    -4.000E-11

    TOTAL POWER DISSIPATION   3.21E-02  WATTS


**** 11/08/21 22:28:36 ******* PSpice Lite (March 2016) ******* ID# 10813 ****

 ** Profile: "SCHEMATIC1-2"  [ D:\Software\Capture_PSpice\Project\Monte Carlo analysis\Monte Carlo analysis-PSpiceFiles\SCHEMATIC1\2.


 ****     SMALL SIGNAL BIAS SOLUTION       TEMPERATURE =   27.000 DEG C

                      MONTE CARLO PASS 14

******************************************************************************



 NODE   VOLTAGE     NODE   VOLTAGE     NODE   VOLTAGE     NODE   VOLTAGE


(  OUT)-177.8E-06  ( +12V)   12.0000  ( -12V)  -12.0000  (N00272)    0.0000     

(N00279)-69.29E-06 (N00283)-153.3E-06 (N00287)-134.1E-06 (X_U1.6) 17.25E-09     

(X_U1.7)-180.5E-06 (X_U1.8)-180.5E-06 (X_U1.9)    0.0000 (X_U1.10)    -.6078    

(X_U1.11)   11.9600                   (X_U1.12)   11.9600                       

(X_U1.13)    -.5939                   (X_U1.14)    -.5939                       

(X_U1.53)   11.0000                   (X_U1.54)  -11.0000                       

(X_U1.90)-53.43E-06                   (X_U1.91)   40.0000                       

(X_U1.92)  -40.0000                   (X_U1.99)    0.0000                   




    VOLTAGE SOURCE CURRENTS
    NAME         CURRENT

    V_V2        -1.337E-03
    V_V3         1.337E-03
    V_V1         7.973E-08
    X_U1.vb      1.725E-13
    X_U1.vc      1.100E-11
    X_U1.ve      1.251E-11
    X_U1.vlim   -5.343E-08
    X_U1.vlp    -4.000E-11
    X_U1.vln    -4.000E-11

    TOTAL POWER DISSIPATION   3.21E-02  WATTS


**** 11/08/21 22:28:36 ******* PSpice Lite (March 2016) ******* ID# 10813 ****

 ** Profile: "SCHEMATIC1-2"  [ D:\Software\Capture_PSpice\Project\Monte Carlo analysis\Monte Carlo analysis-PSpiceFiles\SCHEMATIC1\2.


 ****     SMALL SIGNAL BIAS SOLUTION       TEMPERATURE =   27.000 DEG C

                      MONTE CARLO PASS 15

******************************************************************************



 NODE   VOLTAGE     NODE   VOLTAGE     NODE   VOLTAGE     NODE   VOLTAGE


(  OUT)-183.9E-06  ( +12V)   12.0000  ( -12V)  -12.0000  (N00272)    0.0000     

(N00279)-66.50E-06 (N00283)-153.6E-06 (N00287)-134.4E-06 (X_U1.6) 17.74E-09     

(X_U1.7)-186.2E-06 (X_U1.8)-186.2E-06 (X_U1.9)    0.0000 (X_U1.10)    -.6078    

(X_U1.11)   11.9600                   (X_U1.12)   11.9600                       

(X_U1.13)    -.5939                   (X_U1.14)    -.5939                       

(X_U1.53)   11.0000                   (X_U1.54)  -11.0000                       

(X_U1.90)-47.46E-06                   (X_U1.91)   40.0000                       

(X_U1.92)  -40.0000                   (X_U1.99)    0.0000                   




    VOLTAGE SOURCE CURRENTS
    NAME         CURRENT

    V_V2        -1.337E-03
    V_V3         1.337E-03
    V_V1         7.973E-08
    X_U1.vb      1.774E-13
    X_U1.vc      1.100E-11
    X_U1.ve      1.251E-11
    X_U1.vlim   -4.746E-08
    X_U1.vlp    -4.000E-11
    X_U1.vln    -4.000E-11

    TOTAL POWER DISSIPATION   3.21E-02  WATTS


**** 11/08/21 22:28:36 ******* PSpice Lite (March 2016) ******* ID# 10813 ****

 ** Profile: "SCHEMATIC1-2"  [ D:\Software\Capture_PSpice\Project\Monte Carlo analysis\Monte Carlo analysis-PSpiceFiles\SCHEMATIC1\2.


 ****     SMALL SIGNAL BIAS SOLUTION       TEMPERATURE =   27.000 DEG C

                      MONTE CARLO PASS 16

******************************************************************************



 NODE   VOLTAGE     NODE   VOLTAGE     NODE   VOLTAGE     NODE   VOLTAGE


(  OUT)-202.1E-06  ( +12V)   12.0000  ( -12V)  -12.0000  (N00272)    0.0000     

(N00279)-81.34E-06 (N00283)-154.3E-06 (N00287)-135.0E-06 (X_U1.6) 20.00E-09     

(X_U1.7)-206.3E-06 (X_U1.8)-206.3E-06 (X_U1.9)    0.0000 (X_U1.10)    -.6078    

(X_U1.11)   11.9600                   (X_U1.12)   11.9600                       

(X_U1.13)    -.5939                   (X_U1.14)    -.5939                       

(X_U1.53)   11.0000                   (X_U1.54)  -11.0000                       

(X_U1.90)-85.79E-06                   (X_U1.91)   40.0000                       

(X_U1.92)  -40.0000                   (X_U1.99)    0.0000                   




    VOLTAGE SOURCE CURRENTS
    NAME         CURRENT

    V_V2        -1.337E-03
    V_V3         1.337E-03
    V_V1         7.973E-08
    X_U1.vb      2.000E-13
    X_U1.vc      1.100E-11
    X_U1.ve      1.251E-11
    X_U1.vlim   -8.579E-08
    X_U1.vlp    -4.000E-11
    X_U1.vln    -4.000E-11

    TOTAL POWER DISSIPATION   3.21E-02  WATTS


**** 11/08/21 22:28:36 ******* PSpice Lite (March 2016) ******* ID# 10813 ****

 ** Profile: "SCHEMATIC1-2"  [ D:\Software\Capture_PSpice\Project\Monte Carlo analysis\Monte Carlo analysis-PSpiceFiles\SCHEMATIC1\2.


 ****     SMALL SIGNAL BIAS SOLUTION       TEMPERATURE =   27.000 DEG C

                      MONTE CARLO PASS 17

******************************************************************************



 NODE   VOLTAGE     NODE   VOLTAGE     NODE   VOLTAGE     NODE   VOLTAGE


(  OUT)-180.9E-06  ( +12V)   12.0000  ( -12V)  -12.0000  (N00272)    0.0000     

(N00279)-66.50E-06 (N00283)-148.5E-06 (N00287)-129.2E-06 (X_U1.6) 17.46E-09     

(X_U1.7)-183.3E-06 (X_U1.8)-183.3E-06 (X_U1.9)    0.0000 (X_U1.10)    -.6078    

(X_U1.11)   11.9600                   (X_U1.12)   11.9600                       

(X_U1.13)    -.5939                   (X_U1.14)    -.5939                       

(X_U1.53)   11.0000                   (X_U1.54)  -11.0000                       

(X_U1.90)-47.87E-06                   (X_U1.91)   40.0000                       

(X_U1.92)  -40.0000                   (X_U1.99)    0.0000                   




    VOLTAGE SOURCE CURRENTS
    NAME         CURRENT

    V_V2        -1.337E-03
    V_V3         1.337E-03
    V_V1         7.973E-08
    X_U1.vb      1.746E-13
    X_U1.vc      1.100E-11
    X_U1.ve      1.251E-11
    X_U1.vlim   -4.787E-08
    X_U1.vlp    -4.000E-11
    X_U1.vln    -4.000E-11

    TOTAL POWER DISSIPATION   3.21E-02  WATTS


**** 11/08/21 22:28:36 ******* PSpice Lite (March 2016) ******* ID# 10813 ****

 ** Profile: "SCHEMATIC1-2"  [ D:\Software\Capture_PSpice\Project\Monte Carlo analysis\Monte Carlo analysis-PSpiceFiles\SCHEMATIC1\2.


 ****     SMALL SIGNAL BIAS SOLUTION       TEMPERATURE =   27.000 DEG C

                      MONTE CARLO PASS 18

******************************************************************************



 NODE   VOLTAGE     NODE   VOLTAGE     NODE   VOLTAGE     NODE   VOLTAGE


(  OUT)-180.5E-06  ( +12V)   12.0000  ( -12V)  -12.0000  (N00272)    0.0000     

(N00279)-81.34E-06 (N00283)-162.1E-06 (N00287)-142.8E-06 (X_U1.6) 17.29E-09     

(X_U1.7)-182.4E-06 (X_U1.8)-182.4E-06 (X_U1.9)    0.0000 (X_U1.10)    -.6078    

(X_U1.11)   11.9600                   (X_U1.12)   11.9600                       

(X_U1.13)    -.5939                   (X_U1.14)    -.5940                       

(X_U1.53)   11.0000                   (X_U1.54)  -11.0000                       

(X_U1.90)-38.58E-06                   (X_U1.91)   40.0000                       

(X_U1.92)  -40.0000                   (X_U1.99)    0.0000                   




    VOLTAGE SOURCE CURRENTS
    NAME         CURRENT

    V_V2        -1.337E-03
    V_V3         1.337E-03
    V_V1         7.973E-08
    X_U1.vb      1.729E-13
    X_U1.vc      1.100E-11
    X_U1.ve      1.251E-11
    X_U1.vlim   -3.858E-08
    X_U1.vlp    -4.000E-11
    X_U1.vln    -4.000E-11

    TOTAL POWER DISSIPATION   3.21E-02  WATTS


**** 11/08/21 22:28:36 ******* PSpice Lite (March 2016) ******* ID# 10813 ****

 ** Profile: "SCHEMATIC1-2"  [ D:\Software\Capture_PSpice\Project\Monte Carlo analysis\Monte Carlo analysis-PSpiceFiles\SCHEMATIC1\2.


 ****     SMALL SIGNAL BIAS SOLUTION       TEMPERATURE =   27.000 DEG C

                      MONTE CARLO PASS 19

******************************************************************************



 NODE   VOLTAGE     NODE   VOLTAGE     NODE   VOLTAGE     NODE   VOLTAGE


(  OUT)-170.4E-06  ( +12V)   12.0000  ( -12V)  -12.0000  (N00272)    0.0000     

(N00279)-66.50E-06 (N00283)-148.5E-06 (N00287)-129.2E-06 (X_U1.6) 16.32E-09     

(X_U1.7)-172.3E-06 (X_U1.8)-172.3E-06 (X_U1.9)    0.0000 (X_U1.10)    -.6078    

(X_U1.11)   11.9600                   (X_U1.12)   11.9600                       

(X_U1.13)    -.5939                   (X_U1.14)    -.5939                       

(X_U1.53)   11.0000                   (X_U1.54)  -11.0000                       

(X_U1.90)-37.00E-06                   (X_U1.91)   40.0000                       

(X_U1.92)  -40.0000                   (X_U1.99)    0.0000                   




    VOLTAGE SOURCE CURRENTS
    NAME         CURRENT

    V_V2        -1.337E-03
    V_V3         1.337E-03
    V_V1         7.973E-08
    X_U1.vb      1.632E-13
    X_U1.vc      1.100E-11
    X_U1.ve      1.251E-11
    X_U1.vlim   -3.700E-08
    X_U1.vlp    -4.000E-11
    X_U1.vln    -4.000E-11

    TOTAL POWER DISSIPATION   3.21E-02  WATTS


**** 11/08/21 22:28:36 ******* PSpice Lite (March 2016) ******* ID# 10813 ****

 ** Profile: "SCHEMATIC1-2"  [ D:\Software\Capture_PSpice\Project\Monte Carlo analysis\Monte Carlo analysis-PSpiceFiles\SCHEMATIC1\2.


 ****     SMALL SIGNAL BIAS SOLUTION       TEMPERATURE =   27.000 DEG C

                      MONTE CARLO PASS 20

******************************************************************************



 NODE   VOLTAGE     NODE   VOLTAGE     NODE   VOLTAGE     NODE   VOLTAGE


(  OUT)-233.3E-06  ( +12V)   12.0000  ( -12V)  -12.0000  (N00272)    0.0000     

(N00279)-90.22E-06 (N00283)-169.3E-06 (N00287)-150.0E-06 (X_U1.6) 22.81E-09     

(X_U1.7)-237.1E-06 (X_U1.8)-237.1E-06 (X_U1.9)    0.0000 (X_U1.10)    -.6078    

(X_U1.11)   11.9600                   (X_U1.12)   11.9600                       

(X_U1.13)    -.5940                   (X_U1.14)    -.5940                       

(X_U1.53)   11.0000                   (X_U1.54)  -11.0000                       

(X_U1.90)-76.07E-06                   (X_U1.91)   40.0000                       

(X_U1.92)  -40.0000                   (X_U1.99)    0.0000                   




    VOLTAGE SOURCE CURRENTS
    NAME         CURRENT

    V_V2        -1.337E-03
    V_V3         1.337E-03
    V_V1         7.973E-08
    X_U1.vb      2.281E-13
    X_U1.vc      1.100E-11
    X_U1.ve      1.251E-11
    X_U1.vlim   -7.607E-08
    X_U1.vlp    -4.000E-11
    X_U1.vln    -4.000E-11

    TOTAL POWER DISSIPATION   3.21E-02  WATTS


**** 11/08/21 22:28:36 ******* PSpice Lite (March 2016) ******* ID# 10813 ****

 ** Profile: "SCHEMATIC1-2"  [ D:\Software\Capture_PSpice\Project\Monte Carlo analysis\Monte Carlo analysis-PSpiceFiles\SCHEMATIC1\2.


 ****     SMALL SIGNAL BIAS SOLUTION       TEMPERATURE =   27.000 DEG C

                      MONTE CARLO PASS 21

******************************************************************************



 NODE   VOLTAGE     NODE   VOLTAGE     NODE   VOLTAGE     NODE   VOLTAGE


(  OUT)-165.7E-06  ( +12V)   12.0000  ( -12V)  -12.0000  (N00272)    0.0000     

(N00279)-67.81E-06 (N00283)-141.0E-06 (N00287)-121.7E-06 (X_U1.6) 15.97E-09     

(X_U1.7)-167.8E-06 (X_U1.8)-167.8E-06 (X_U1.9)    0.0000 (X_U1.10)    -.6078    

(X_U1.11)   11.9600                   (X_U1.12)   11.9600                       

(X_U1.13)    -.5939                   (X_U1.14)    -.5939                       

(X_U1.53)   11.0000                   (X_U1.54)  -11.0000                       

(X_U1.90)-43.61E-06                   (X_U1.91)   40.0000                       

(X_U1.92)  -40.0000                   (X_U1.99)    0.0000                   




    VOLTAGE SOURCE CURRENTS
    NAME         CURRENT

    V_V2        -1.337E-03
    V_V3         1.337E-03
    V_V1         7.973E-08
    X_U1.vb      1.597E-13
    X_U1.vc      1.100E-11
    X_U1.ve      1.251E-11
    X_U1.vlim   -4.361E-08
    X_U1.vlp    -4.000E-11
    X_U1.vln    -4.000E-11

    TOTAL POWER DISSIPATION   3.21E-02  WATTS


**** 11/08/21 22:28:36 ******* PSpice Lite (March 2016) ******* ID# 10813 ****

 ** Profile: "SCHEMATIC1-2"  [ D:\Software\Capture_PSpice\Project\Monte Carlo analysis\Monte Carlo analysis-PSpiceFiles\SCHEMATIC1\2.


 ****     SMALL SIGNAL BIAS SOLUTION       TEMPERATURE =   27.000 DEG C

                      MONTE CARLO PASS 22

******************************************************************************



 NODE   VOLTAGE     NODE   VOLTAGE     NODE   VOLTAGE     NODE   VOLTAGE


(  OUT)-198.8E-06  ( +12V)   12.0000  ( -12V)  -12.0000  (N00272)    0.0000     

(N00279)-85.58E-06 (N00283)-164.4E-06 (N00287)-145.1E-06 (X_U1.6) 19.16E-09     

(X_U1.7)-201.2E-06 (X_U1.8)-201.2E-06 (X_U1.9)    0.0000 (X_U1.10)    -.6078    

(X_U1.11)   11.9600                   (X_U1.12)   11.9600                       

(X_U1.13)    -.5939                   (X_U1.14)    -.5940                       

(X_U1.53)   11.0000                   (X_U1.54)  -11.0000                       

(X_U1.90)-49.01E-06                   (X_U1.91)   40.0000                       

(X_U1.92)  -40.0000                   (X_U1.99)    0.0000                   




    VOLTAGE SOURCE CURRENTS
    NAME         CURRENT

    V_V2        -1.337E-03
    V_V3         1.337E-03
    V_V1         7.973E-08
    X_U1.vb      1.916E-13
    X_U1.vc      1.100E-11
    X_U1.ve      1.251E-11
    X_U1.vlim   -4.901E-08
    X_U1.vlp    -4.000E-11
    X_U1.vln    -4.000E-11

    TOTAL POWER DISSIPATION   3.21E-02  WATTS


**** 11/08/21 22:28:36 ******* PSpice Lite (March 2016) ******* ID# 10813 ****

 ** Profile: "SCHEMATIC1-2"  [ D:\Software\Capture_PSpice\Project\Monte Carlo analysis\Monte Carlo analysis-PSpiceFiles\SCHEMATIC1\2.


 ****     SMALL SIGNAL BIAS SOLUTION       TEMPERATURE =   27.000 DEG C

                      MONTE CARLO PASS 23

******************************************************************************



 NODE   VOLTAGE     NODE   VOLTAGE     NODE   VOLTAGE     NODE   VOLTAGE


(  OUT)-208.0E-06  ( +12V)   12.0000  ( -12V)  -12.0000  (N00272)    0.0000     

(N00279)-82.70E-06 (N00283)-166.9E-06 (N00287)-147.6E-06 (X_U1.6) 20.22E-09     

(X_U1.7)-211.1E-06 (X_U1.8)-211.1E-06 (X_U1.9)    0.0000 (X_U1.10)    -.6078    

(X_U1.11)   11.9600                   (X_U1.12)   11.9600                       

(X_U1.13)    -.5940                   (X_U1.14)    -.5940                       

(X_U1.53)   11.0000                   (X_U1.54)  -11.0000                       

(X_U1.90)-62.15E-06                   (X_U1.91)   40.0000                       

(X_U1.92)  -40.0000                   (X_U1.99)    0.0000                   




    VOLTAGE SOURCE CURRENTS
    NAME         CURRENT

    V_V2        -1.337E-03
    V_V3         1.337E-03
    V_V1         7.973E-08
    X_U1.vb      2.022E-13
    X_U1.vc      1.100E-11
    X_U1.ve      1.251E-11
    X_U1.vlim   -6.215E-08
    X_U1.vlp    -4.000E-11
    X_U1.vln    -4.000E-11

    TOTAL POWER DISSIPATION   3.21E-02  WATTS


**** 11/08/21 22:28:36 ******* PSpice Lite (March 2016) ******* ID# 10813 ****

 ** Profile: "SCHEMATIC1-2"  [ D:\Software\Capture_PSpice\Project\Monte Carlo analysis\Monte Carlo analysis-PSpiceFiles\SCHEMATIC1\2.


 ****     SMALL SIGNAL BIAS SOLUTION       TEMPERATURE =   27.000 DEG C

                      MONTE CARLO PASS 24

******************************************************************************



 NODE   VOLTAGE     NODE   VOLTAGE     NODE   VOLTAGE     NODE   VOLTAGE


(  OUT)-141.4E-06  ( +12V)   12.0000  ( -12V)  -12.0000  (N00272)    0.0000     

(N00279)-63.89E-06 (N00283)-138.8E-06 (N00287)-119.6E-06 (X_U1.6) 13.41E-09     

(X_U1.7)-142.7E-06 (X_U1.8)-142.7E-06 (X_U1.9)    0.0000 (X_U1.10)    -.6078    

(X_U1.11)   11.9600                   (X_U1.12)   11.9600                       

(X_U1.13)    -.5939                   (X_U1.14)    -.5939                       

(X_U1.53)   11.0000                   (X_U1.54)  -11.0000                       

(X_U1.90)-24.59E-06                   (X_U1.91)   40.0000                       

(X_U1.92)  -40.0000                   (X_U1.99)    0.0000                   




    VOLTAGE SOURCE CURRENTS
    NAME         CURRENT

    V_V2        -1.337E-03
    V_V3         1.337E-03
    V_V1         7.973E-08
    X_U1.vb      1.341E-13
    X_U1.vc      1.100E-11
    X_U1.ve      1.251E-11
    X_U1.vlim   -2.459E-08
    X_U1.vlp    -4.000E-11
    X_U1.vln    -4.000E-11

    TOTAL POWER DISSIPATION   3.21E-02  WATTS


**** 11/08/21 22:28:36 ******* PSpice Lite (March 2016) ******* ID# 10813 ****

 ** Profile: "SCHEMATIC1-2"  [ D:\Software\Capture_PSpice\Project\Monte Carlo analysis\Monte Carlo analysis-PSpiceFiles\SCHEMATIC1\2.


 ****     SMALL SIGNAL BIAS SOLUTION       TEMPERATURE =   27.000 DEG C

                      MONTE CARLO PASS 25

******************************************************************************



 NODE   VOLTAGE     NODE   VOLTAGE     NODE   VOLTAGE     NODE   VOLTAGE


(  OUT)-220.9E-06  ( +12V)   12.0000  ( -12V)  -12.0000  (N00272)    0.0000     

(N00279)-82.70E-06 (N00283)-168.7E-06 (N00287)-149.4E-06 (X_U1.6) 21.64E-09     

(X_U1.7)-224.7E-06 (X_U1.8)-224.7E-06 (X_U1.9)    0.0000 (X_U1.10)    -.6078    

(X_U1.11)   11.9600                   (X_U1.12)   11.9600                       

(X_U1.13)    -.5940                   (X_U1.14)    -.5940                       

(X_U1.53)   11.0000                   (X_U1.54)  -11.0000                       

(X_U1.90)-76.69E-06                   (X_U1.91)   40.0000                       

(X_U1.92)  -40.0000                   (X_U1.99)    0.0000                   




    VOLTAGE SOURCE CURRENTS
    NAME         CURRENT

    V_V2        -1.337E-03
    V_V3         1.337E-03
    V_V1         7.973E-08
    X_U1.vb      2.164E-13
    X_U1.vc      1.100E-11
    X_U1.ve      1.251E-11
    X_U1.vlim   -7.669E-08
    X_U1.vlp    -4.000E-11
    X_U1.vln    -4.000E-11

    TOTAL POWER DISSIPATION   3.21E-02  WATTS


**** 11/08/21 22:28:36 ******* PSpice Lite (March 2016) ******* ID# 10813 ****

 ** Profile: "SCHEMATIC1-2"  [ D:\Software\Capture_PSpice\Project\Monte Carlo analysis\Monte Carlo analysis-PSpiceFiles\SCHEMATIC1\2.


 ****     SMALL SIGNAL BIAS SOLUTION       TEMPERATURE =   27.000 DEG C

                      MONTE CARLO PASS 26

******************************************************************************



 NODE   VOLTAGE     NODE   VOLTAGE     NODE   VOLTAGE     NODE   VOLTAGE


(  OUT)-152.7E-06  ( +12V)   12.0000  ( -12V)  -12.0000  (N00272)    0.0000     

(N00279)-63.89E-06 (N00283)-138.8E-06 (N00287)-119.6E-06 (X_U1.6) 14.64E-09     

(X_U1.7)-154.5E-06 (X_U1.8)-154.5E-06 (X_U1.9)    0.0000 (X_U1.10)    -.6078    

(X_U1.11)   11.9600                   (X_U1.12)   11.9600                       

(X_U1.13)    -.5939                   (X_U1.14)    -.5939                       

(X_U1.53)   11.0000                   (X_U1.54)  -11.0000                       

(X_U1.90)-36.82E-06                   (X_U1.91)   40.0000                       

(X_U1.92)  -40.0000                   (X_U1.99)    0.0000                   




    VOLTAGE SOURCE CURRENTS
    NAME         CURRENT

    V_V2        -1.337E-03
    V_V3         1.337E-03
    V_V1         7.973E-08
    X_U1.vb      1.464E-13
    X_U1.vc      1.100E-11
    X_U1.ve      1.251E-11
    X_U1.vlim   -3.682E-08
    X_U1.vlp    -4.000E-11
    X_U1.vln    -4.000E-11

    TOTAL POWER DISSIPATION   3.21E-02  WATTS


**** 11/08/21 22:28:36 ******* PSpice Lite (March 2016) ******* ID# 10813 ****

 ** Profile: "SCHEMATIC1-2"  [ D:\Software\Capture_PSpice\Project\Monte Carlo analysis\Monte Carlo analysis-PSpiceFiles\SCHEMATIC1\2.


 ****     SMALL SIGNAL BIAS SOLUTION       TEMPERATURE =   27.000 DEG C

                      MONTE CARLO PASS 27

******************************************************************************



 NODE   VOLTAGE     NODE   VOLTAGE     NODE   VOLTAGE     NODE   VOLTAGE


(  OUT)-202.8E-06  ( +12V)   12.0000  ( -12V)  -12.0000  (N00272)    0.0000     

(N00279)-72.08E-06 (N00283)-159.5E-06 (N00287)-140.3E-06 (X_U1.6) 19.80E-09     

(X_U1.7)-206.1E-06 (X_U1.8)-206.1E-06 (X_U1.9)    0.0000 (X_U1.10)    -.6078    

(X_U1.11)   11.9600                   (X_U1.12)   11.9600                       

(X_U1.13)    -.5939                   (X_U1.14)    -.5940                       

(X_U1.53)   11.0000                   (X_U1.54)  -11.0000                       

(X_U1.90)-67.10E-06                   (X_U1.91)   40.0000                       

(X_U1.92)  -40.0000                   (X_U1.99)    0.0000                   




    VOLTAGE SOURCE CURRENTS
    NAME         CURRENT

    V_V2        -1.337E-03
    V_V3         1.337E-03
    V_V1         7.973E-08
    X_U1.vb      1.980E-13
    X_U1.vc      1.100E-11
    X_U1.ve      1.251E-11
    X_U1.vlim   -6.710E-08
    X_U1.vlp    -4.000E-11
    X_U1.vln    -4.000E-11

    TOTAL POWER DISSIPATION   3.21E-02  WATTS


**** 11/08/21 22:28:36 ******* PSpice Lite (March 2016) ******* ID# 10813 ****

 ** Profile: "SCHEMATIC1-2"  [ D:\Software\Capture_PSpice\Project\Monte Carlo analysis\Monte Carlo analysis-PSpiceFiles\SCHEMATIC1\2.


 ****     SMALL SIGNAL BIAS SOLUTION       TEMPERATURE =   27.000 DEG C

                      MONTE CARLO PASS 28

******************************************************************************



 NODE   VOLTAGE     NODE   VOLTAGE     NODE   VOLTAGE     NODE   VOLTAGE


(  OUT)-153.8E-06  ( +12V)   12.0000  ( -12V)  -12.0000  (N00272)    0.0000     

(N00279)-63.89E-06 (N00283)-139.5E-06 (N00287)-120.2E-06 (X_U1.6) 14.76E-09     

(X_U1.7)-155.7E-06 (X_U1.8)-155.7E-06 (X_U1.9)    0.0000 (X_U1.10)    -.6078    

(X_U1.11)   11.9600                   (X_U1.12)   11.9600                       

(X_U1.13)    -.5939                   (X_U1.14)    -.5939                       

(X_U1.53)   11.0000                   (X_U1.54)  -11.0000                       

(X_U1.90)-37.42E-06                   (X_U1.91)   40.0000                       

(X_U1.92)  -40.0000                   (X_U1.99)    0.0000                   




    VOLTAGE SOURCE CURRENTS
    NAME         CURRENT

    V_V2        -1.337E-03
    V_V3         1.337E-03
    V_V1         7.973E-08
    X_U1.vb      1.476E-13
    X_U1.vc      1.100E-11
    X_U1.ve      1.251E-11
    X_U1.vlim   -3.742E-08
    X_U1.vlp    -4.000E-11
    X_U1.vln    -4.000E-11

    TOTAL POWER DISSIPATION   3.21E-02  WATTS


**** 11/08/21 22:28:36 ******* PSpice Lite (March 2016) ******* ID# 10813 ****

 ** Profile: "SCHEMATIC1-2"  [ D:\Software\Capture_PSpice\Project\Monte Carlo analysis\Monte Carlo analysis-PSpiceFiles\SCHEMATIC1\2.


 ****     SMALL SIGNAL BIAS SOLUTION       TEMPERATURE =   27.000 DEG C

                      MONTE CARLO PASS 29

******************************************************************************



 NODE   VOLTAGE     NODE   VOLTAGE     NODE   VOLTAGE     NODE   VOLTAGE


(  OUT)-183.4E-06  ( +12V)   12.0000  ( -12V)  -12.0000  (N00272)    0.0000     

(N00279)-72.08E-06 (N00283)-159.5E-06 (N00287)-140.3E-06 (X_U1.6) 17.58E-09     

(X_U1.7)-185.3E-06 (X_U1.8)-185.3E-06 (X_U1.9)    0.0000 (X_U1.10)    -.6078    

(X_U1.11)   11.9600                   (X_U1.12)   11.9600                       

(X_U1.13)    -.5939                   (X_U1.14)    -.5940                       

(X_U1.53)   11.0000                   (X_U1.54)  -11.0000                       

(X_U1.90)-39.77E-06                   (X_U1.91)   40.0000                       

(X_U1.92)  -40.0000                   (X_U1.99)    0.0000                   




    VOLTAGE SOURCE CURRENTS
    NAME         CURRENT

    V_V2        -1.337E-03
    V_V3         1.337E-03
    V_V1         7.973E-08
    X_U1.vb      1.758E-13
    X_U1.vc      1.100E-11
    X_U1.ve      1.251E-11
    X_U1.vlim   -3.977E-08
    X_U1.vlp    -4.000E-11
    X_U1.vln    -4.000E-11

    TOTAL POWER DISSIPATION   3.21E-02  WATTS


**** 11/08/21 22:28:36 ******* PSpice Lite (March 2016) ******* ID# 10813 ****

 ** Profile: "SCHEMATIC1-2"  [ D:\Software\Capture_PSpice\Project\Monte Carlo analysis\Monte Carlo analysis-PSpiceFiles\SCHEMATIC1\2.


 ****     SMALL SIGNAL BIAS SOLUTION       TEMPERATURE =   27.000 DEG C

                      MONTE CARLO PASS 30

******************************************************************************



 NODE   VOLTAGE     NODE   VOLTAGE     NODE   VOLTAGE     NODE   VOLTAGE


(  OUT)-217.4E-06  ( +12V)   12.0000  ( -12V)  -12.0000  (N00272)    0.0000     

(N00279)-91.53E-06 (N00283)-167.1E-06 (N00287)-147.8E-06 (X_U1.6) 21.19E-09     

(X_U1.7)-220.8E-06 (X_U1.8)-220.8E-06 (X_U1.9)    0.0000 (X_U1.10)    -.6078    

(X_U1.11)   11.9600                   (X_U1.12)   11.9600                       

(X_U1.13)    -.5940                   (X_U1.14)    -.5940                       

(X_U1.53)   11.0000                   (X_U1.54)  -11.0000                       

(X_U1.90)-68.11E-06                   (X_U1.91)   40.0000                       

(X_U1.92)  -40.0000                   (X_U1.99)    0.0000                   




    VOLTAGE SOURCE CURRENTS
    NAME         CURRENT

    V_V2        -1.337E-03
    V_V3         1.337E-03
    V_V1         7.973E-08
    X_U1.vb      2.119E-13
    X_U1.vc      1.100E-11
    X_U1.ve      1.251E-11
    X_U1.vlim   -6.811E-08
    X_U1.vlp    -4.000E-11
    X_U1.vln    -4.000E-11

    TOTAL POWER DISSIPATION   3.21E-02  WATTS


**** 11/08/21 22:28:36 ******* PSpice Lite (March 2016) ******* ID# 10813 ****

 ** Profile: "SCHEMATIC1-2"  [ D:\Software\Capture_PSpice\Project\Monte Carlo analysis\Monte Carlo analysis-PSpiceFiles\SCHEMATIC1\2.


 ****     SMALL SIGNAL BIAS SOLUTION       TEMPERATURE =   27.000 DEG C

                      MONTE CARLO PASS 31

******************************************************************************



 NODE   VOLTAGE     NODE   VOLTAGE     NODE   VOLTAGE     NODE   VOLTAGE


(  OUT)-171.9E-06  ( +12V)   12.0000  ( -12V)  -12.0000  (N00272)    0.0000     

(N00279)-77.46E-06 (N00283)-151.9E-06 (N00287)-132.7E-06 (X_U1.6) 16.41E-09     

(X_U1.7)-173.6E-06 (X_U1.8)-173.6E-06 (X_U1.9)    0.0000 (X_U1.10)    -.6078    

(X_U1.11)   11.9600                   (X_U1.12)   11.9600                       

(X_U1.13)    -.5939                   (X_U1.14)    -.5939                       

(X_U1.53)   11.0000                   (X_U1.54)  -11.0000                       

(X_U1.90)-33.28E-06                   (X_U1.91)   40.0000                       

(X_U1.92)  -40.0000                   (X_U1.99)    0.0000                   




    VOLTAGE SOURCE CURRENTS
    NAME         CURRENT

    V_V2        -1.337E-03
    V_V3         1.337E-03
    V_V1         7.973E-08
    X_U1.vb      1.641E-13
    X_U1.vc      1.100E-11
    X_U1.ve      1.251E-11
    X_U1.vlim   -3.328E-08
    X_U1.vlp    -4.000E-11
    X_U1.vln    -4.000E-11

    TOTAL POWER DISSIPATION   3.21E-02  WATTS


**** 11/08/21 22:28:36 ******* PSpice Lite (March 2016) ******* ID# 10813 ****

 ** Profile: "SCHEMATIC1-2"  [ D:\Software\Capture_PSpice\Project\Monte Carlo analysis\Monte Carlo analysis-PSpiceFiles\SCHEMATIC1\2.


 ****     SMALL SIGNAL BIAS SOLUTION       TEMPERATURE =   27.000 DEG C

                      MONTE CARLO PASS 32

******************************************************************************



 NODE   VOLTAGE     NODE   VOLTAGE     NODE   VOLTAGE     NODE   VOLTAGE


(  OUT)-209.6E-06  ( +12V)   12.0000  ( -12V)  -12.0000  (N00272)    0.0000     

(N00279)-86.95E-06 (N00283)-162.5E-06 (N00287)-143.3E-06 (X_U1.6) 20.53E-09     

(X_U1.7)-213.2E-06 (X_U1.8)-213.2E-06 (X_U1.9)    0.0000 (X_U1.10)    -.6078    

(X_U1.11)   11.9600                   (X_U1.12)   11.9600                       

(X_U1.13)    -.5939                   (X_U1.14)    -.5940                       

(X_U1.53)   11.0000                   (X_U1.54)  -11.0000                       

(X_U1.90)-73.20E-06                   (X_U1.91)   40.0000                       

(X_U1.92)  -40.0000                   (X_U1.99)    0.0000                   




    VOLTAGE SOURCE CURRENTS
    NAME         CURRENT

    V_V2        -1.337E-03
    V_V3         1.337E-03
    V_V1         7.973E-08
    X_U1.vb      2.053E-13
    X_U1.vc      1.100E-11
    X_U1.ve      1.251E-11
    X_U1.vlim   -7.320E-08
    X_U1.vlp    -4.000E-11
    X_U1.vln    -4.000E-11

    TOTAL POWER DISSIPATION   3.21E-02  WATTS


**** 11/08/21 22:28:36 ******* PSpice Lite (March 2016) ******* ID# 10813 ****

 ** Profile: "SCHEMATIC1-2"  [ D:\Software\Capture_PSpice\Project\Monte Carlo analysis\Monte Carlo analysis-PSpiceFiles\SCHEMATIC1\2.


 ****     SMALL SIGNAL BIAS SOLUTION       TEMPERATURE =   27.000 DEG C

                      MONTE CARLO PASS 33

******************************************************************************



 NODE   VOLTAGE     NODE   VOLTAGE     NODE   VOLTAGE     NODE   VOLTAGE


(  OUT)-189.1E-06  ( +12V)   12.0000  ( -12V)  -12.0000  (N00272)    0.0000     

(N00279)-81.54E-06 (N00283)-156.0E-06 (N00287)-136.7E-06 (X_U1.6) 18.37E-09     

(X_U1.7)-192.0E-06 (X_U1.8)-192.0E-06 (X_U1.9)    0.0000 (X_U1.10)    -.6078    

(X_U1.11)   11.9600                   (X_U1.12)   11.9600                       

(X_U1.13)    -.5939                   (X_U1.14)    -.5939                       

(X_U1.53)   11.0000                   (X_U1.54)  -11.0000                       

(X_U1.90)-57.07E-06                   (X_U1.91)   40.0000                       

(X_U1.92)  -40.0000                   (X_U1.99)    0.0000                   




    VOLTAGE SOURCE CURRENTS
    NAME         CURRENT

    V_V2        -1.337E-03
    V_V3         1.337E-03
    V_V1         7.973E-08
    X_U1.vb      1.837E-13
    X_U1.vc      1.100E-11
    X_U1.ve      1.251E-11
    X_U1.vlim   -5.707E-08
    X_U1.vlp    -4.000E-11
    X_U1.vln    -4.000E-11

    TOTAL POWER DISSIPATION   3.21E-02  WATTS


**** 11/08/21 22:28:36 ******* PSpice Lite (March 2016) ******* ID# 10813 ****

 ** Profile: "SCHEMATIC1-2"  [ D:\Software\Capture_PSpice\Project\Monte Carlo analysis\Monte Carlo analysis-PSpiceFiles\SCHEMATIC1\2.


 ****     SMALL SIGNAL BIAS SOLUTION       TEMPERATURE =   27.000 DEG C

                      MONTE CARLO PASS 34

******************************************************************************



 NODE   VOLTAGE     NODE   VOLTAGE     NODE   VOLTAGE     NODE   VOLTAGE


(  OUT)-181.8E-06  ( +12V)   12.0000  ( -12V)  -12.0000  (N00272)    0.0000     

(N00279)-82.20E-06 (N00283)-153.4E-06 (N00287)-134.2E-06 (X_U1.6) 17.60E-09     

(X_U1.7)-184.4E-06 (X_U1.8)-184.4E-06 (X_U1.9)    0.0000 (X_U1.10)    -.6078    

(X_U1.11)   11.9600                   (X_U1.12)   11.9600                       

(X_U1.13)    -.5939                   (X_U1.14)    -.5939                       

(X_U1.53)   11.0000                   (X_U1.54)  -11.0000                       

(X_U1.90)-51.12E-06                   (X_U1.91)   40.0000                       

(X_U1.92)  -40.0000                   (X_U1.99)    0.0000                   




    VOLTAGE SOURCE CURRENTS
    NAME         CURRENT

    V_V2        -1.337E-03
    V_V3         1.337E-03
    V_V1         7.973E-08
    X_U1.vb      1.760E-13
    X_U1.vc      1.100E-11
    X_U1.ve      1.251E-11
    X_U1.vlim   -5.112E-08
    X_U1.vlp    -4.000E-11
    X_U1.vln    -4.000E-11

    TOTAL POWER DISSIPATION   3.21E-02  WATTS


**** 11/08/21 22:28:36 ******* PSpice Lite (March 2016) ******* ID# 10813 ****

 ** Profile: "SCHEMATIC1-2"  [ D:\Software\Capture_PSpice\Project\Monte Carlo analysis\Monte Carlo analysis-PSpiceFiles\SCHEMATIC1\2.


 ****     SMALL SIGNAL BIAS SOLUTION       TEMPERATURE =   27.000 DEG C

                      MONTE CARLO PASS 35

******************************************************************************



 NODE   VOLTAGE     NODE   VOLTAGE     NODE   VOLTAGE     NODE   VOLTAGE


(  OUT)-192.0E-06  ( +12V)   12.0000  ( -12V)  -12.0000  (N00272)    0.0000     

(N00279)-87.13E-06 (N00283)-160.1E-06 (N00287)-140.9E-06 (X_U1.6) 18.70E-09     

(X_U1.7)-195.1E-06 (X_U1.8)-195.1E-06 (X_U1.9)    0.0000 (X_U1.10)    -.6078    

(X_U1.11)   11.9600                   (X_U1.12)   11.9600                       

(X_U1.13)    -.5939                   (X_U1.14)    -.5940                       

(X_U1.53)   11.0000                   (X_U1.54)  -11.0000                       

(X_U1.90)-61.21E-06                   (X_U1.91)   40.0000                       

(X_U1.92)  -40.0000                   (X_U1.99)    0.0000                   




    VOLTAGE SOURCE CURRENTS
    NAME         CURRENT

    V_V2        -1.337E-03
    V_V3         1.337E-03
    V_V1         7.973E-08
    X_U1.vb      1.870E-13
    X_U1.vc      1.100E-11
    X_U1.ve      1.251E-11
    X_U1.vlim   -6.121E-08
    X_U1.vlp    -4.000E-11
    X_U1.vln    -4.000E-11

    TOTAL POWER DISSIPATION   3.21E-02  WATTS


**** 11/08/21 22:28:36 ******* PSpice Lite (March 2016) ******* ID# 10813 ****

 ** Profile: "SCHEMATIC1-2"  [ D:\Software\Capture_PSpice\Project\Monte Carlo analysis\Monte Carlo analysis-PSpiceFiles\SCHEMATIC1\2.


 ****     SMALL SIGNAL BIAS SOLUTION       TEMPERATURE =   27.000 DEG C

                      MONTE CARLO PASS 36

******************************************************************************



 NODE   VOLTAGE     NODE   VOLTAGE     NODE   VOLTAGE     NODE   VOLTAGE


(  OUT)-203.1E-06  ( +12V)   12.0000  ( -12V)  -12.0000  (N00272)    0.0000     

(N00279)-82.20E-06 (N00283)-166.5E-06 (N00287)-147.2E-06 (X_U1.6) 19.69E-09     

(X_U1.7)-206.0E-06 (X_U1.8)-206.0E-06 (X_U1.9)    0.0000 (X_U1.10)    -.6078    

(X_U1.11)   11.9600                   (X_U1.12)   11.9600                       

(X_U1.13)    -.5940                   (X_U1.14)    -.5940                       

(X_U1.53)   11.0000                   (X_U1.54)  -11.0000                       

(X_U1.90)-57.83E-06                   (X_U1.91)   40.0000                       

(X_U1.92)  -40.0000                   (X_U1.99)    0.0000                   




    VOLTAGE SOURCE CURRENTS
    NAME         CURRENT

    V_V2        -1.337E-03
    V_V3         1.337E-03
    V_V1         7.973E-08
    X_U1.vb      1.969E-13
    X_U1.vc      1.100E-11
    X_U1.ve      1.251E-11
    X_U1.vlim   -5.783E-08
    X_U1.vlp    -4.000E-11
    X_U1.vln    -4.000E-11

    TOTAL POWER DISSIPATION   3.21E-02  WATTS


**** 11/08/21 22:28:36 ******* PSpice Lite (March 2016) ******* ID# 10813 ****

 ** Profile: "SCHEMATIC1-2"  [ D:\Software\Capture_PSpice\Project\Monte Carlo analysis\Monte Carlo analysis-PSpiceFiles\SCHEMATIC1\2.


 ****     SMALL SIGNAL BIAS SOLUTION       TEMPERATURE =   27.000 DEG C

                      MONTE CARLO PASS 37

******************************************************************************



 NODE   VOLTAGE     NODE   VOLTAGE     NODE   VOLTAGE     NODE   VOLTAGE


(  OUT)-203.7E-06  ( +12V)   12.0000  ( -12V)  -12.0000  (N00272)    0.0000     

(N00279)-87.13E-06 (N00283)-166.5E-06 (N00287)-147.3E-06 (X_U1.6) 19.90E-09     

(X_U1.7)-207.1E-06 (X_U1.8)-207.1E-06 (X_U1.9)    0.0000 (X_U1.10)    -.6078    

(X_U1.11)   11.9600                   (X_U1.12)   11.9600                       

(X_U1.13)    -.5940                   (X_U1.14)    -.5940                       

(X_U1.53)   11.0000                   (X_U1.54)  -11.0000                       

(X_U1.90)-67.59E-06                   (X_U1.91)   40.0000                       

(X_U1.92)  -40.0000                   (X_U1.99)    0.0000                   




    VOLTAGE SOURCE CURRENTS
    NAME         CURRENT

    V_V2        -1.337E-03
    V_V3         1.337E-03
    V_V1         7.973E-08
    X_U1.vb      1.990E-13
    X_U1.vc      1.100E-11
    X_U1.ve      1.251E-11
    X_U1.vlim   -6.759E-08
    X_U1.vlp    -4.000E-11
    X_U1.vln    -4.000E-11

    TOTAL POWER DISSIPATION   3.21E-02  WATTS


**** 11/08/21 22:28:36 ******* PSpice Lite (March 2016) ******* ID# 10813 ****

 ** Profile: "SCHEMATIC1-2"  [ D:\Software\Capture_PSpice\Project\Monte Carlo analysis\Monte Carlo analysis-PSpiceFiles\SCHEMATIC1\2.


 ****     SMALL SIGNAL BIAS SOLUTION       TEMPERATURE =   27.000 DEG C

                      MONTE CARLO PASS 38

******************************************************************************



 NODE   VOLTAGE     NODE   VOLTAGE     NODE   VOLTAGE     NODE   VOLTAGE


(  OUT)-209.7E-06  ( +12V)   12.0000  ( -12V)  -12.0000  (N00272)    0.0000     

(N00279)-82.18E-06 (N00283)-166.5E-06 (N00287)-147.2E-06 (X_U1.6) 20.32E-09     

(X_U1.7)-212.6E-06 (X_U1.8)-212.6E-06 (X_U1.9)    0.0000 (X_U1.10)    -.6078    

(X_U1.11)   11.9600                   (X_U1.12)   11.9600                       

(X_U1.13)    -.5940                   (X_U1.14)    -.5940                       

(X_U1.53)   11.0000                   (X_U1.54)  -11.0000                       

(X_U1.90)-57.82E-06                   (X_U1.91)   40.0000                       

(X_U1.92)  -40.0000                   (X_U1.99)    0.0000                   




    VOLTAGE SOURCE CURRENTS
    NAME         CURRENT

    V_V2        -1.337E-03
    V_V3         1.337E-03
    V_V1         7.973E-08
    X_U1.vb      2.032E-13
    X_U1.vc      1.100E-11
    X_U1.ve      1.251E-11
    X_U1.vlim   -5.782E-08
    X_U1.vlp    -4.000E-11
    X_U1.vln    -4.000E-11

    TOTAL POWER DISSIPATION   3.21E-02  WATTS


**** 11/08/21 22:28:36 ******* PSpice Lite (March 2016) ******* ID# 10813 ****

 ** Profile: "SCHEMATIC1-2"  [ D:\Software\Capture_PSpice\Project\Monte Carlo analysis\Monte Carlo analysis-PSpiceFiles\SCHEMATIC1\2.


 ****     SMALL SIGNAL BIAS SOLUTION       TEMPERATURE =   27.000 DEG C

                      MONTE CARLO PASS 39

******************************************************************************



 NODE   VOLTAGE     NODE   VOLTAGE     NODE   VOLTAGE     NODE   VOLTAGE


(  OUT)-196.0E-06  ( +12V)   12.0000  ( -12V)  -12.0000  (N00272)    0.0000     

(N00279)-84.09E-06 (N00283)-164.7E-06 (N00287)-145.5E-06 (X_U1.6) 19.15E-09     

(X_U1.7)-199.3E-06 (X_U1.8)-199.3E-06 (X_U1.9)    0.0000 (X_U1.10)    -.6078    

(X_U1.11)   11.9600                   (X_U1.12)   11.9600                       

(X_U1.13)    -.5939                   (X_U1.14)    -.5940                       

(X_U1.53)   11.0000                   (X_U1.54)  -11.0000                       

(X_U1.90)-65.79E-06                   (X_U1.91)   40.0000                       

(X_U1.92)  -40.0000                   (X_U1.99)    0.0000                   




    VOLTAGE SOURCE CURRENTS
    NAME         CURRENT

    V_V2        -1.337E-03
    V_V3         1.337E-03
    V_V1         7.973E-08
    X_U1.vb      1.915E-13
    X_U1.vc      1.100E-11
    X_U1.ve      1.251E-11
    X_U1.vlim   -6.579E-08
    X_U1.vlp    -4.000E-11
    X_U1.vln    -4.000E-11

    TOTAL POWER DISSIPATION   3.21E-02  WATTS


**** 11/08/21 22:28:36 ******* PSpice Lite (March 2016) ******* ID# 10813 ****

 ** Profile: "SCHEMATIC1-2"  [ D:\Software\Capture_PSpice\Project\Monte Carlo analysis\Monte Carlo analysis-PSpiceFiles\SCHEMATIC1\2.


 ****     SMALL SIGNAL BIAS SOLUTION       TEMPERATURE =   27.000 DEG C

                      MONTE CARLO PASS 40

******************************************************************************



 NODE   VOLTAGE     NODE   VOLTAGE     NODE   VOLTAGE     NODE   VOLTAGE


(  OUT)-181.3E-06  ( +12V)   12.0000  ( -12V)  -12.0000  (N00272)    0.0000     

(N00279)-73.65E-06 (N00283)-165.4E-06 (N00287)-146.1E-06 (X_U1.6) 17.37E-09     

(X_U1.7)-183.2E-06 (X_U1.8)-183.2E-06 (X_U1.9)    0.0000 (X_U1.10)    -.6078    

(X_U1.11)   11.9600                   (X_U1.12)   11.9600                       

(X_U1.13)    -.5939                   (X_U1.14)    -.5940                       

(X_U1.53)   11.0000                   (X_U1.54)  -11.0000                       

(X_U1.90)-39.01E-06                   (X_U1.91)   40.0000                       

(X_U1.92)  -40.0000                   (X_U1.99)    0.0000                   




    VOLTAGE SOURCE CURRENTS
    NAME         CURRENT

    V_V2        -1.337E-03
    V_V3         1.337E-03
    V_V1         7.973E-08
    X_U1.vb      1.737E-13
    X_U1.vc      1.100E-11
    X_U1.ve      1.251E-11
    X_U1.vlim   -3.901E-08
    X_U1.vlp    -4.000E-11
    X_U1.vln    -4.000E-11

    TOTAL POWER DISSIPATION   3.21E-02  WATTS


**** 11/08/21 22:28:36 ******* PSpice Lite (March 2016) ******* ID# 10813 ****

 ** Profile: "SCHEMATIC1-2"  [ D:\Software\Capture_PSpice\Project\Monte Carlo analysis\Monte Carlo analysis-PSpiceFiles\SCHEMATIC1\2.


 ****     SMALL SIGNAL BIAS SOLUTION       TEMPERATURE =   27.000 DEG C

                      MONTE CARLO PASS 41

******************************************************************************



 NODE   VOLTAGE     NODE   VOLTAGE     NODE   VOLTAGE     NODE   VOLTAGE


(  OUT)-164.0E-06  ( +12V)   12.0000  ( -12V)  -12.0000  (N00272)    0.0000     

(N00279)-79.06E-06 (N00283)-149.5E-06 (N00287)-130.2E-06 (X_U1.6) 15.67E-09     

(X_U1.7)-165.7E-06 (X_U1.8)-165.7E-06 (X_U1.9)    0.0000 (X_U1.10)    -.6078    

(X_U1.11)   11.9600                   (X_U1.12)   11.9600                       

(X_U1.13)    -.5939                   (X_U1.14)    -.5939                       

(X_U1.53)   11.0000                   (X_U1.54)  -11.0000                       

(X_U1.90)-34.09E-06                   (X_U1.91)   40.0000                       

(X_U1.92)  -40.0000                   (X_U1.99)    0.0000                   




    VOLTAGE SOURCE CURRENTS
    NAME         CURRENT

    V_V2        -1.337E-03
    V_V3         1.337E-03
    V_V1         7.973E-08
    X_U1.vb      1.567E-13
    X_U1.vc      1.100E-11
    X_U1.ve      1.251E-11
    X_U1.vlim   -3.409E-08
    X_U1.vlp    -4.000E-11
    X_U1.vln    -4.000E-11

    TOTAL POWER DISSIPATION   3.21E-02  WATTS


**** 11/08/21 22:28:36 ******* PSpice Lite (March 2016) ******* ID# 10813 ****

 ** Profile: "SCHEMATIC1-2"  [ D:\Software\Capture_PSpice\Project\Monte Carlo analysis\Monte Carlo analysis-PSpiceFiles\SCHEMATIC1\2.


 ****     SMALL SIGNAL BIAS SOLUTION       TEMPERATURE =   27.000 DEG C

                      MONTE CARLO PASS 42

******************************************************************************



 NODE   VOLTAGE     NODE   VOLTAGE     NODE   VOLTAGE     NODE   VOLTAGE


(  OUT)-241.3E-06  ( +12V)   12.0000  ( -12V)  -12.0000  (N00272)    0.0000     

(N00279)-73.65E-06 (N00283)-167.3E-06 (N00287)-148.1E-06 (X_U1.6) 23.72E-09     

(X_U1.7)-245.6E-06 (X_U1.8)-245.6E-06 (X_U1.9)    0.0000 (X_U1.10)    -.6078    

(X_U1.11)   11.9600                   (X_U1.12)   11.9600                       

(X_U1.13)    -.5940                   (X_U1.14)    -.5940                       

(X_U1.53)   11.0000                   (X_U1.54)  -11.0000                       

(X_U1.90)-87.48E-06                   (X_U1.91)   40.0000                       

(X_U1.92)  -40.0000                   (X_U1.99)    0.0000                   




    VOLTAGE SOURCE CURRENTS
    NAME         CURRENT

    V_V2        -1.337E-03
    V_V3         1.337E-03
    V_V1         7.973E-08
    X_U1.vb      2.372E-13
    X_U1.vc      1.100E-11
    X_U1.ve      1.251E-11
    X_U1.vlim   -8.748E-08
    X_U1.vlp    -4.000E-11
    X_U1.vln    -4.000E-11

    TOTAL POWER DISSIPATION   3.21E-02  WATTS


**** 11/08/21 22:28:36 ******* PSpice Lite (March 2016) ******* ID# 10813 ****

 ** Profile: "SCHEMATIC1-2"  [ D:\Software\Capture_PSpice\Project\Monte Carlo analysis\Monte Carlo analysis-PSpiceFiles\SCHEMATIC1\2.


 ****     SMALL SIGNAL BIAS SOLUTION       TEMPERATURE =   27.000 DEG C

                      MONTE CARLO PASS 43

******************************************************************************



 NODE   VOLTAGE     NODE   VOLTAGE     NODE   VOLTAGE     NODE   VOLTAGE


(  OUT)-170.9E-06  ( +12V)   12.0000  ( -12V)  -12.0000  (N00272)    0.0000     

(N00279)-78.12E-06 (N00283)-150.3E-06 (N00287)-131.1E-06 (X_U1.6) 16.41E-09     

(X_U1.7)-172.9E-06 (X_U1.8)-172.9E-06 (X_U1.9)    0.0000 (X_U1.10)    -.6078    

(X_U1.11)   11.9600                   (X_U1.12)   11.9600                       

(X_U1.13)    -.5939                   (X_U1.14)    -.5939                       

(X_U1.53)   11.0000                   (X_U1.54)  -11.0000                       

(X_U1.90)-40.23E-06                   (X_U1.91)   40.0000                       

(X_U1.92)  -40.0000                   (X_U1.99)    0.0000                   




    VOLTAGE SOURCE CURRENTS
    NAME         CURRENT

    V_V2        -1.337E-03
    V_V3         1.337E-03
    V_V1         7.973E-08
    X_U1.vb      1.641E-13
    X_U1.vc      1.100E-11
    X_U1.ve      1.251E-11
    X_U1.vlim   -4.023E-08
    X_U1.vlp    -4.000E-11
    X_U1.vln    -4.000E-11

    TOTAL POWER DISSIPATION   3.21E-02  WATTS


**** 11/08/21 22:28:36 ******* PSpice Lite (March 2016) ******* ID# 10813 ****

 ** Profile: "SCHEMATIC1-2"  [ D:\Software\Capture_PSpice\Project\Monte Carlo analysis\Monte Carlo analysis-PSpiceFiles\SCHEMATIC1\2.


 ****     SMALL SIGNAL BIAS SOLUTION       TEMPERATURE =   27.000 DEG C

                      MONTE CARLO PASS 44

******************************************************************************



 NODE   VOLTAGE     NODE   VOLTAGE     NODE   VOLTAGE     NODE   VOLTAGE


(  OUT)-207.4E-06  ( +12V)   12.0000  ( -12V)  -12.0000  (N00272)    0.0000     

(N00279)-88.22E-06 (N00283)-162.3E-06 (N00287)-143.1E-06 (X_U1.6) 20.13E-09     

(X_U1.7)-210.4E-06 (X_U1.8)-210.4E-06 (X_U1.9)    0.0000 (X_U1.10)    -.6078    

(X_U1.11)   11.9600                   (X_U1.12)   11.9600                       

(X_U1.13)    -.5939                   (X_U1.14)    -.5940                       

(X_U1.53)   11.0000                   (X_U1.54)  -11.0000                       

(X_U1.90)-60.34E-06                   (X_U1.91)   40.0000                       

(X_U1.92)  -40.0000                   (X_U1.99)    0.0000                   




    VOLTAGE SOURCE CURRENTS
    NAME         CURRENT

    V_V2        -1.337E-03
    V_V3         1.337E-03
    V_V1         7.973E-08
    X_U1.vb      2.013E-13
    X_U1.vc      1.100E-11
    X_U1.ve      1.251E-11
    X_U1.vlim   -6.034E-08
    X_U1.vlp    -4.000E-11
    X_U1.vln    -4.000E-11

    TOTAL POWER DISSIPATION   3.21E-02  WATTS


**** 11/08/21 22:28:36 ******* PSpice Lite (March 2016) ******* ID# 10813 ****

 ** Profile: "SCHEMATIC1-2"  [ D:\Software\Capture_PSpice\Project\Monte Carlo analysis\Monte Carlo analysis-PSpiceFiles\SCHEMATIC1\2.


 ****     SMALL SIGNAL BIAS SOLUTION       TEMPERATURE =   27.000 DEG C

                      MONTE CARLO PASS 45

******************************************************************************



 NODE   VOLTAGE     NODE   VOLTAGE     NODE   VOLTAGE     NODE   VOLTAGE


(  OUT)-248.4E-06  ( +12V)   12.0000  ( -12V)  -12.0000  (N00272)    0.0000     

(N00279)-77.05E-06 (N00283)-164.5E-06 (N00287)-145.2E-06 (X_U1.6) 24.63E-09     

(X_U1.7)-253.6E-06 (X_U1.8)-253.6E-06 (X_U1.9)    0.0000 (X_U1.10)    -.6078    

(X_U1.11)   11.9600                   (X_U1.12)   11.9600                       

(X_U1.13)    -.5939                   (X_U1.14)    -.5940                       

(X_U1.53)   11.0000                   (X_U1.54)  -11.0000                       

(X_U1.90)-104.3E-06                   (X_U1.91)   40.0000                       

(X_U1.92)  -40.0000                   (X_U1.99)    0.0000                   




    VOLTAGE SOURCE CURRENTS
    NAME         CURRENT

    V_V2        -1.337E-03
    V_V3         1.337E-03
    V_V1         7.973E-08
    X_U1.vb      2.463E-13
    X_U1.vc      1.100E-11
    X_U1.ve      1.251E-11
    X_U1.vlim   -1.043E-07
    X_U1.vlp    -4.000E-11
    X_U1.vln    -4.000E-11

    TOTAL POWER DISSIPATION   3.21E-02  WATTS


**** 11/08/21 22:28:36 ******* PSpice Lite (March 2016) ******* ID# 10813 ****

 ** Profile: "SCHEMATIC1-2"  [ D:\Software\Capture_PSpice\Project\Monte Carlo analysis\Monte Carlo analysis-PSpiceFiles\SCHEMATIC1\2.


 ****     SMALL SIGNAL BIAS SOLUTION       TEMPERATURE =   27.000 DEG C

                      MONTE CARLO PASS 46

******************************************************************************



 NODE   VOLTAGE     NODE   VOLTAGE     NODE   VOLTAGE     NODE   VOLTAGE


(  OUT)-186.4E-06  ( +12V)   12.0000  ( -12V)  -12.0000  (N00272)    0.0000     

(N00279)-83.05E-06 (N00283)-161.7E-06 (N00287)-142.4E-06 (X_U1.6) 17.99E-09     

(X_U1.7)-188.8E-06 (X_U1.8)-188.8E-06 (X_U1.9)    0.0000 (X_U1.10)    -.6078    

(X_U1.11)   11.9600                   (X_U1.12)   11.9600                       

(X_U1.13)    -.5939                   (X_U1.14)    -.5940                       

(X_U1.53)   11.0000                   (X_U1.54)  -11.0000                       

(X_U1.90)-47.91E-06                   (X_U1.91)   40.0000                       

(X_U1.92)  -40.0000                   (X_U1.99)    0.0000                   




    VOLTAGE SOURCE CURRENTS
    NAME         CURRENT

    V_V2        -1.337E-03
    V_V3         1.337E-03
    V_V1         7.973E-08
    X_U1.vb      1.799E-13
    X_U1.vc      1.100E-11
    X_U1.ve      1.251E-11
    X_U1.vlim   -4.791E-08
    X_U1.vlp    -4.000E-11
    X_U1.vln    -4.000E-11

    TOTAL POWER DISSIPATION   3.21E-02  WATTS


**** 11/08/21 22:28:36 ******* PSpice Lite (March 2016) ******* ID# 10813 ****

 ** Profile: "SCHEMATIC1-2"  [ D:\Software\Capture_PSpice\Project\Monte Carlo analysis\Monte Carlo analysis-PSpiceFiles\SCHEMATIC1\2.


 ****     SMALL SIGNAL BIAS SOLUTION       TEMPERATURE =   27.000 DEG C

                      MONTE CARLO PASS 47

******************************************************************************



 NODE   VOLTAGE     NODE   VOLTAGE     NODE   VOLTAGE     NODE   VOLTAGE


(  OUT)-204.2E-06  ( +12V)   12.0000  ( -12V)  -12.0000  (N00272)    0.0000     

(N00279)-78.14E-06 (N00283)-165.6E-06 (N00287)-146.3E-06 (X_U1.6) 19.81E-09     

(X_U1.7)-207.2E-06 (X_U1.8)-207.2E-06 (X_U1.9)    0.0000 (X_U1.10)    -.6078    

(X_U1.11)   11.9600                   (X_U1.12)   11.9600                       

(X_U1.13)    -.5940                   (X_U1.14)    -.5940                       

(X_U1.53)   11.0000                   (X_U1.54)  -11.0000                       

(X_U1.90)-58.56E-06                   (X_U1.91)   40.0000                       

(X_U1.92)  -40.0000                   (X_U1.99)    0.0000                   




    VOLTAGE SOURCE CURRENTS
    NAME         CURRENT

    V_V2        -1.337E-03
    V_V3         1.337E-03
    V_V1         7.973E-08
    X_U1.vb      1.981E-13
    X_U1.vc      1.100E-11
    X_U1.ve      1.251E-11
    X_U1.vlim   -5.856E-08
    X_U1.vlp    -4.000E-11
    X_U1.vln    -4.000E-11

    TOTAL POWER DISSIPATION   3.21E-02  WATTS


**** 11/08/21 22:28:36 ******* PSpice Lite (March 2016) ******* ID# 10813 ****

 ** Profile: "SCHEMATIC1-2"  [ D:\Software\Capture_PSpice\Project\Monte Carlo analysis\Monte Carlo analysis-PSpiceFiles\SCHEMATIC1\2.


 ****     SMALL SIGNAL BIAS SOLUTION       TEMPERATURE =   27.000 DEG C

                      MONTE CARLO PASS 48

******************************************************************************



 NODE   VOLTAGE     NODE   VOLTAGE     NODE   VOLTAGE     NODE   VOLTAGE


(  OUT)-166.7E-06  ( +12V)   12.0000  ( -12V)  -12.0000  (N00272)    0.0000     

(N00279)-66.14E-06 (N00283)-144.7E-06 (N00287)-125.5E-06 (X_U1.6) 16.08E-09     

(X_U1.7)-168.9E-06 (X_U1.8)-168.9E-06 (X_U1.9)    0.0000 (X_U1.10)    -.6078    

(X_U1.11)   11.9600                   (X_U1.12)   11.9600                       

(X_U1.13)    -.5939                   (X_U1.14)    -.5939                       

(X_U1.53)   11.0000                   (X_U1.54)  -11.0000                       

(X_U1.90)-44.80E-06                   (X_U1.91)   40.0000                       

(X_U1.92)  -40.0000                   (X_U1.99)    0.0000                   




    VOLTAGE SOURCE CURRENTS
    NAME         CURRENT

    V_V2        -1.337E-03
    V_V3         1.337E-03
    V_V1         7.973E-08
    X_U1.vb      1.608E-13
    X_U1.vc      1.100E-11
    X_U1.ve      1.251E-11
    X_U1.vlim   -4.480E-08
    X_U1.vlp    -4.000E-11
    X_U1.vln    -4.000E-11

    TOTAL POWER DISSIPATION   3.21E-02  WATTS


**** 11/08/21 22:28:36 ******* PSpice Lite (March 2016) ******* ID# 10813 ****

 ** Profile: "SCHEMATIC1-2"  [ D:\Software\Capture_PSpice\Project\Monte Carlo analysis\Monte Carlo analysis-PSpiceFiles\SCHEMATIC1\2.


 ****     SMALL SIGNAL BIAS SOLUTION       TEMPERATURE =   27.000 DEG C

                      MONTE CARLO PASS 49

******************************************************************************



 NODE   VOLTAGE     NODE   VOLTAGE     NODE   VOLTAGE     NODE   VOLTAGE


(  OUT)-184.9E-06  ( +12V)   12.0000  ( -12V)  -12.0000  (N00272)    0.0000     

(N00279)-72.66E-06 (N00283)-160.1E-06 (N00287)-140.8E-06 (X_U1.6) 17.74E-09     

(X_U1.7)-187.0E-06 (X_U1.8)-187.0E-06 (X_U1.9)    0.0000 (X_U1.10)    -.6078    

(X_U1.11)   11.9600                   (X_U1.12)   11.9600                       

(X_U1.13)    -.5939                   (X_U1.14)    -.5940                       

(X_U1.53)   11.0000                   (X_U1.54)  -11.0000                       

(X_U1.90)-41.07E-06                   (X_U1.91)   40.0000                       

(X_U1.92)  -40.0000                   (X_U1.99)    0.0000                   




    VOLTAGE SOURCE CURRENTS
    NAME         CURRENT

    V_V2        -1.337E-03
    V_V3         1.337E-03
    V_V1         7.973E-08
    X_U1.vb      1.774E-13
    X_U1.vc      1.100E-11
    X_U1.ve      1.251E-11
    X_U1.vlim   -4.107E-08
    X_U1.vlp    -4.000E-11
    X_U1.vln    -4.000E-11

    TOTAL POWER DISSIPATION   3.21E-02  WATTS


**** 11/08/21 22:28:36 ******* PSpice Lite (March 2016) ******* ID# 10813 ****

 ** Profile: "SCHEMATIC1-2"  [ D:\Software\Capture_PSpice\Project\Monte Carlo analysis\Monte Carlo analysis-PSpiceFiles\SCHEMATIC1\2.


 ****     SMALL SIGNAL BIAS SOLUTION       TEMPERATURE =   27.000 DEG C

                      MONTE CARLO PASS 50

******************************************************************************



 NODE   VOLTAGE     NODE   VOLTAGE     NODE   VOLTAGE     NODE   VOLTAGE


(  OUT)-199.7E-06  ( +12V)   12.0000  ( -12V)  -12.0000  (N00272)    0.0000     

(N00279)-81.91E-06 (N00283)-153.8E-06 (N00287)-134.5E-06 (X_U1.6) 19.37E-09     

(X_U1.7)-202.6E-06 (X_U1.8)-202.6E-06 (X_U1.9)    0.0000 (X_U1.10)    -.6078    

(X_U1.11)   11.9600                   (X_U1.12)   11.9600                       

(X_U1.13)    -.5939                   (X_U1.14)    -.5939                       

(X_U1.53)   11.0000                   (X_U1.54)  -11.0000                       

(X_U1.90)-57.15E-06                   (X_U1.91)   40.0000                       

(X_U1.92)  -40.0000                   (X_U1.99)    0.0000                   




    VOLTAGE SOURCE CURRENTS
    NAME         CURRENT

    V_V2        -1.337E-03
    V_V3         1.337E-03
    V_V1         7.973E-08
    X_U1.vb      1.937E-13
    X_U1.vc      1.100E-11
    X_U1.ve      1.251E-11
    X_U1.vlim   -5.715E-08
    X_U1.vlp    -4.000E-11
    X_U1.vln    -4.000E-11

    TOTAL POWER DISSIPATION   3.21E-02  WATTS


**** 11/08/21 22:28:36 ******* PSpice Lite (March 2016) ******* ID# 10813 ****

 ** Profile: "SCHEMATIC1-2"  [ D:\Software\Capture_PSpice\Project\Monte Carlo analysis\Monte Carlo analysis-PSpiceFiles\SCHEMATIC1\2.


 ****     SMALL SIGNAL BIAS SOLUTION       TEMPERATURE =   27.000 DEG C

                      MONTE CARLO PASS 51

******************************************************************************



 NODE   VOLTAGE     NODE   VOLTAGE     NODE   VOLTAGE     NODE   VOLTAGE


(  OUT)-157.1E-06  ( +12V)   12.0000  ( -12V)  -12.0000  (N00272)    0.0000     

(N00279)-60.64E-06 (N00283)-129.7E-06 (N00287)-110.5E-06 (X_U1.6) 15.25E-09     

(X_U1.7)-159.6E-06 (X_U1.8)-159.6E-06 (X_U1.9)    0.0000 (X_U1.10)    -.6078    

(X_U1.11)   11.9600                   (X_U1.12)   11.9600                       

(X_U1.13)    -.5939                   (X_U1.14)    -.5939                       

(X_U1.53)   11.0000                   (X_U1.54)  -11.0000                       

(X_U1.90)-50.18E-06                   (X_U1.91)   40.0000                       

(X_U1.92)  -40.0000                   (X_U1.99)    0.0000                   




    VOLTAGE SOURCE CURRENTS
    NAME         CURRENT

    V_V2        -1.337E-03
    V_V3         1.337E-03
    V_V1         7.973E-08
    X_U1.vb      1.525E-13
    X_U1.vc      1.100E-11
[...]
                        ( 144.66% of Nominal)

Pass  182                .8799  (1.07 sigma)  higher  at F =  199.53
                        ( 160.65% of Nominal)

Pass  130                .865   (1.05 sigma)  higher  at F =  173.78
                        ( 147.96% of Nominal)

Pass  199                .8614  (1.05 sigma)  lower  at F =  144.54
                        (  60.163% of Nominal)

Pass   93                .8444  (1.03 sigma)  higher  at F =  165.96
                        ( 144.19% of Nominal)

Pass  153                .8435  (1.03 sigma)  higher  at F =  138.04
                        ( 138.04% of Nominal)

Pass  174                .8404  (1.02 sigma)  higher  at F =  125.89
                        ( 136.77% of Nominal)

Pass    2                .8217  (1.00 sigma)  lower  at F =  138.04
                        (  62.945% of Nominal)

Pass    7                .7883  ( .96 sigma)  lower  at F =  134.9 
                        (  64.798% of Nominal)

Pass  106                .7867  ( .96 sigma)  higher  at F =  169.82
                        ( 142.33% of Nominal)

Pass   64                .7822  ( .95 sigma)  higher  at F =  147.91
                        ( 136.74% of Nominal)

Pass   55                .7705  ( .94 sigma)  higher  at F =  151.36
                        ( 136.82% of Nominal)

Pass  178                .7333  ( .89 sigma)  lower  at F =  138.04
                        (  66.931% of Nominal)

Pass  193                .704   ( .86 sigma)  lower  at F =  138.04
                        (  68.249% of Nominal)

Pass  146                .6767  ( .82 sigma)  lower  at F =  151.36
                        (  67.657% of Nominal)

Pass  151                .6705  ( .82 sigma)  lower  at F =  128.83
                        (  70.508% of Nominal)

Pass  189                .6589  ( .80 sigma)  lower  at F =  151.36
                        (  68.508% of Nominal)

Pass  118                .632   ( .77 sigma)  lower  at F =  138.04
                        (  71.496% of Nominal)

Pass  129                .6309  ( .77 sigma)  higher  at F =  107.15
                        ( 127.36% of Nominal)

Pass  113                .6259  ( .76 sigma)  lower  at F =  151.36
                        (  70.086% of Nominal)

Pass   24                .622   ( .76 sigma)  lower  at F =  128.83
                        (  72.64 % of Nominal)

Pass  145                .6139  ( .75 sigma)  lower  at F =  141.25
                        (  71.989% of Nominal)

Pass   16                .6109  ( .74 sigma)  higher  at F =  151.36
                        ( 129.2 % of Nominal)

Pass  149                .5852  ( .71 sigma)  lower  at F =  128.83
                        (  74.257% of Nominal)

Pass   90                .5789  ( .71 sigma)  lower  at F =  151.36
                        (  72.333% of Nominal)

Pass  144                .5747  ( .70 sigma)  higher  at F =  158.49
                        ( 128.62% of Nominal)

Pass   59                .5706  ( .70 sigma)  higher  at F =  181.97
                        ( 133.79% of Nominal)

Pass  120                .5702  ( .69 sigma)  lower  at F =  134.9 
                        (  74.538% of Nominal)

Pass  162                .5613  ( .68 sigma)  higher  at F =  144.54
                        ( 125.96% of Nominal)

Pass  112                .5567  ( .68 sigma)  lower  at F =  131.83
                        (  75.347% of Nominal)

Pass  185                .5385  ( .66 sigma)  higher  at F =  141.25
                        ( 124.57% of Nominal)

Pass  143                .5285  ( .64 sigma)  higher  at F =  154.88
                        ( 125.75% of Nominal)

Pass   63                .5265  ( .64 sigma)  lower  at F =  151.36
                        (  74.835% of Nominal)

Pass   36                .5209  ( .63 sigma)  lower  at F =  147.91
                        (  75.537% of Nominal)

Pass   96                .5148  ( .63 sigma)  lower  at F =  151.36
                        (  75.396% of Nominal)

Pass    9                .5124  ( .62 sigma)  lower  at F =  151.36
                        (  75.513% of Nominal)

Pass   89                .4874  ( .59 sigma)  lower  at F =  138.04
                        (  78.021% of Nominal)

Pass    3                .4833  ( .59 sigma)  higher  at F =  165.96
                        ( 125.29% of Nominal)

Pass  192                .476   ( .58 sigma)  lower  at F =  131.83
                        (  78.919% of Nominal)

Pass   56                .4754  ( .58 sigma)  lower  at F =  131.83
                        (  78.949% of Nominal)

Pass  135                .4694  ( .57 sigma)  higher  at F =  138.04
                        ( 121.17% of Nominal)

Pass   50                .468   ( .57 sigma)  higher  at F =  134.9 
                        ( 120.9 % of Nominal)

Pass  133                .4667  ( .57 sigma)  higher  at F =  123.03
                        ( 120.33% of Nominal)

Pass  190                .4664  ( .57 sigma)  lower  at F =  138.04
                        (  78.966% of Nominal)

Pass  161                .4627  ( .56 sigma)  higher  at F =  169.82
                        ( 124.9 % of Nominal)

Pass  117                .462   ( .56 sigma)  lower  at F =  134.9 
                        (  79.368% of Nominal)

Pass   29                .4618  ( .56 sigma)  lower  at F =  134.9 
                        (  79.38 % of Nominal)

Pass  167                .4549  ( .55 sigma)  higher  at F =  114.82
                        ( 119.7 % of Nominal)

Pass   95                .4516  ( .55 sigma)  higher  at F =  131.83
                        ( 120   % of Nominal)

Pass  191                .4512  ( .55 sigma)  lower  at F =  138.04
                        (  79.651% of Nominal)

Pass  105                .4475  ( .55 sigma)  lower  at F =  154.88
                        (  78.193% of Nominal)

Pass   14                .4452  ( .54 sigma)  lower  at F =  128.83
                        (  80.415% of Nominal)

Pass  131                .4308  ( .52 sigma)  higher  at F =  162.18
                        ( 121.97% of Nominal)

Pass  101                .4192  ( .51 sigma)  higher  at F =  134.9 
                        ( 118.72% of Nominal)

Pass   76                .4175  ( .51 sigma)  lower  at F =  134.9 
                        (  81.357% of Nominal)

Pass  152                .4145  ( .51 sigma)  lower  at F =  141.25
                        (  81.088% of Nominal)

Pass  176                .4048  ( .49 sigma)  lower  at F =  147.91
                        (  80.986% of Nominal)

Pass   94                .3984  ( .49 sigma)  lower  at F =  165.96
                        (  79.153% of Nominal)

Pass   99                .3966  ( .48 sigma)  lower  at F =  165.96
                        (  79.244% of Nominal)

Pass  142                .393   ( .48 sigma)  lower  at F =  173.78
                        (  78.209% of Nominal)

Pass   47                .3897  ( .47 sigma)  lower  at F =  144.54
                        (  81.979% of Nominal)

Pass  177                .3868  ( .47 sigma)  lower  at F =  138.04
                        (  82.555% of Nominal)

Pass   98                .3853  ( .47 sigma)  lower  at F =  158.49
                        (  80.813% of Nominal)

Pass   46                .3847  ( .47 sigma)  lower  at F =  144.54
                        (  82.208% of Nominal)

Pass   33                .3838  ( .47 sigma)  lower  at F =  138.04
                        (  82.691% of Nominal)

Pass  194                .381   ( .46 sigma)  lower  at F =  120.23
                        (  83.451% of Nominal)

Pass    5                .3748  ( .46 sigma)  lower  at F =  134.9 
                        (  83.264% of Nominal)

Pass   39                .3722  ( .45 sigma)  lower  at F =  144.54
                        (  82.788% of Nominal)

Pass  134                .3706  ( .45 sigma)  higher  at F =  107.15
                        ( 116.07% of Nominal)

Pass   92                .3653  ( .45 sigma)  higher  at F =  107.15
                        ( 115.84% of Nominal)

Pass  121                .3611  ( .44 sigma)  lower  at F =  151.36
                        (  82.743% of Nominal)

Pass   25                .3595  ( .44 sigma)  lower  at F =  154.88
                        (  82.481% of Nominal)

Pass  200                .3589  ( .44 sigma)  higher  at F =   97.724
                        ( 115.69% of Nominal)

Pass  110                .3547  ( .43 sigma)  higher  at F =  120.23
                        ( 115.41% of Nominal)

Pass   53                .3431  ( .42 sigma)  higher  at F =  162.18
                        ( 117.49% of Nominal)

Pass  128                .3418  ( .42 sigma)  lower  at F =  165.96
                        (  82.114% of Nominal)

Pass  109                .3416  ( .42 sigma)  higher  at F =  138.04
                        ( 115.41% of Nominal)

Pass  111                .337   ( .41 sigma)  lower  at F =  134.9 
                        (  84.953% of Nominal)

Pass  139                .3329  ( .41 sigma)  higher  at F =  162.18
                        ( 116.97% of Nominal)

Pass   49                .3299  ( .40 sigma)  lower  at F =  141.25
                        (  84.949% of Nominal)

Pass  170                .3287  ( .40 sigma)  higher  at F =  144.54
                        ( 115.2 % of Nominal)

Pass  171                .3259  ( .40 sigma)  lower  at F =  128.83
                        (  85.667% of Nominal)

Pass  164                .3243  ( .40 sigma)  lower  at F =  173.78
                        (  82.02 % of Nominal)

Pass   23                .3181  ( .39 sigma)  lower  at F =  169.82
                        (  82.882% of Nominal)

Pass   65                .3159  ( .38 sigma)  higher  at F =  162.18
                        ( 116.11% of Nominal)

Pass   88                .3158  ( .38 sigma)  higher  at F =  165.96
                        ( 116.52% of Nominal)

Pass   86                .3096  ( .38 sigma)  higher  at F =  165.96
                        ( 116.2 % of Nominal)

Pass  163                .309   ( .38 sigma)  higher  at F =  181.97
                        ( 118.3 % of Nominal)

Pass   28                .3064  ( .37 sigma)  lower  at F =  114.82
                        (  86.729% of Nominal)

Pass  173                .3026  ( .37 sigma)  higher  at F =  144.54
                        ( 114   % of Nominal)

Pass   26                .3026  ( .37 sigma)  lower  at F =  112.2 
                        (  86.898% of Nominal)

Pass  198                .2993  ( .36 sigma)  lower  at F =  162.18
                        (  84.736% of Nominal)

Pass  116                .2978  ( .36 sigma)  lower  at F =  138.04
                        (  86.569% of Nominal)

Pass   27                .2977  ( .36 sigma)  lower  at F =  147.91
                        (  86.018% of Nominal)

Pass   71                .2964  ( .36 sigma)  lower  at F =  123.03
                        (  87.088% of Nominal)

Pass   58                .296   ( .36 sigma)  higher  at F =  131.83
                        ( 113.11% of Nominal)

Pass   45                .2937  ( .36 sigma)  higher  at F =   91.201
                        ( 112.97% of Nominal)

Pass  168                .2937  ( .36 sigma)  lower  at F =  138.04
                        (  86.754% of Nominal)

Pass   97                .2936  ( .36 sigma)  lower  at F =  154.88
                        (  85.693% of Nominal)

Pass  183                .2934  ( .36 sigma)  lower  at F =  154.88
                        (  85.701% of Nominal)

Pass   22                .2855  ( .35 sigma)  lower  at F =  147.91
                        (  86.589% of Nominal)

Pass   44                .2854  ( .35 sigma)  higher  at F =  138.04
                        ( 112.87% of Nominal)

Pass   75                .2831  ( .34 sigma)  higher  at F =  223.87
                        ( 124.27% of Nominal)

Pass   82                .2816  ( .34 sigma)  higher  at F =  104.71
                        ( 112.23% of Nominal)

Pass  125                .2745  ( .33 sigma)  lower  at F =  131.83
                        (  87.843% of Nominal)

Pass  147                .2734  ( .33 sigma)  lower  at F =  128.83
                        (  87.975% of Nominal)

Pass  186                .2661  ( .32 sigma)  higher  at F =  169.82
                        ( 114.32% of Nominal)

Pass  159                .2648  ( .32 sigma)  lower  at F =  181.97
                        (  84.323% of Nominal)

Pass   38                .262   ( .32 sigma)  lower  at F =  144.54
                        (  87.883% of Nominal)

Pass   83                .2502  ( .30 sigma)  lower  at F =  114.82
                        (  89.163% of Nominal)

Pass   70                .2483  ( .30 sigma)  lower  at F =  138.04
                        (  88.801% of Nominal)

Pass   18                .2432  ( .30 sigma)  lower  at F =  173.78
                        (  86.513% of Nominal)

Pass  150                .243   ( .30 sigma)  higher  at F =  151.36
                        ( 111.61% of Nominal)

Pass   43                .2386  ( .29 sigma)  lower  at F =  117.49
                        (  89.657% of Nominal)

Pass   13                .2353  ( .29 sigma)  higher  at F =  223.87
                        ( 120.17% of Nominal)

Pass    6                .2342  ( .29 sigma)  lower  at F =  162.18
                        (  88.056% of Nominal)

Pass   72                .2328  ( .28 sigma)  higher  at F =  128.83
                        ( 110.24% of Nominal)

Pass  187                .2261  ( .28 sigma)  higher  at F =  186.21
                        ( 113.87% of Nominal)

Pass  165                .2258  ( .28 sigma)  higher  at F =  144.54
                        ( 110.44% of Nominal)

Pass  169                .2253  ( .27 sigma)  lower  at F =  154.88
                        (  89.019% of Nominal)

Pass   34                .2178  ( .27 sigma)  lower  at F =  123.03
                        (  90.509% of Nominal)

Pass   73                .2114  ( .26 sigma)  higher  at F =  213.8 
                        ( 116.56% of Nominal)

Pass  114                .2104  ( .26 sigma)  lower  at F =  165.96
                        (  88.991% of Nominal)

Pass   78                .2083  ( .25 sigma)  lower  at F =  154.88
                        (  89.849% of Nominal)

Pass   42                .2071  ( .25 sigma)  lower  at F =  169.82
                        (  88.853% of Nominal)

Pass   87                .2063  ( .25 sigma)  higher  at F =  134.9 
                        ( 109.21% of Nominal)

Pass   21                .2041  ( .25 sigma)  higher  at F =  229.09
                        ( 118.32% of Nominal)

Pass   20                .2038  ( .25 sigma)  higher  at F =  109.65
                        ( 108.83% of Nominal)

Pass   15                .201   ( .24 sigma)  lower  at F =  134.9 
                        (  91.025% of Nominal)

Pass  184                .1885  ( .23 sigma)  lower  at F =  112.2 
                        (  91.838% of Nominal)

Pass   37                .1872  ( .23 sigma)  lower  at F =  162.18
                        (  90.454% of Nominal)

Pass   52                .1864  ( .23 sigma)  higher  at F =  213.8 
                        ( 114.6 % of Nominal)

Pass   48                .1845  ( .22 sigma)  lower  at F =  107.15
                        (  91.998% of Nominal)

Pass   31                .1817  ( .22 sigma)  lower  at F =  128.83
                        (  92.009% of Nominal)

Pass  188                .1811  ( .22 sigma)  higher  at F =  173.78
                        ( 110.04% of Nominal)

Pass  126                .1781  ( .22 sigma)  lower  at F =  134.9 
                        (  92.047% of Nominal)

Pass  100                .1713  ( .21 sigma)  lower  at F =  181.97
                        (  89.858% of Nominal)

Pass  160                .1666  ( .20 sigma)  higher  at F =  223.87
                        ( 114.28% of Nominal)

Pass  108                .166   ( .20 sigma)  lower  at F =  162.18
                        (  91.537% of Nominal)

Pass  132                .1642  ( .20 sigma)  higher  at F =  234.42
                        ( 115.45% of Nominal)

Pass   35                .1638  ( .20 sigma)  lower  at F =   23.988
                        (  91.901% of Nominal)

Pass   85                .1602  ( .20 sigma)  lower  at F =  154.88
                        (  92.191% of Nominal)

Pass  156                .1589  ( .19 sigma)  lower  at F =  173.78
                        (  91.19 % of Nominal)

Pass  123                .1577  ( .19 sigma)  higher  at F =  123.03
                        ( 106.87% of Nominal)

Pass   41                .1569  ( .19 sigma)  lower  at F =   91.201
                        (  93.073% of Nominal)

Pass   60                .1562  ( .19 sigma)  higher  at F =  104.71
                        ( 106.78% of Nominal)

Pass   17                .1552  ( .19 sigma)  higher  at F =  218.78
                        ( 112.71% of Nominal)

Pass   30                .1548  ( .19 sigma)  higher  at F =  107.15
                        ( 106.71% of Nominal)

Pass  196                .1486  ( .18 sigma)  lower  at F =  117.49
                        (  93.558% of Nominal)

Pass  166                .1486  ( .18 sigma)  lower  at F =  165.96
                        (  92.225% of Nominal)

Pass   61                .1481  ( .18 sigma)  lower  at F =    8.5114
                        (  92.604% of Nominal)

Pass  154                .1408  ( .17 sigma)  lower  at F =  114.82
                        (  93.904% of Nominal)

Pass  102                .1334  ( .16 sigma)  higher  at F =   70.795
                        ( 106.12% of Nominal)

Pass  138                .1246  ( .15 sigma)  lower  at F =   23.988
                        (  93.84 % of Nominal)

Pass   91                .1117  ( .14 sigma)  lower  at F =  102.33
                        (  95.138% of Nominal)

Pass   57                .1073  ( .13 sigma)  lower  at F =  138.04
                        (  95.162% of Nominal)

Pass    8                .1024  ( .12 sigma)  higher  at F =  144.54
                        ( 104.73% of Nominal)

Pass  148                .0944  ( .12 sigma)  higher  at F =  169.82
                        ( 105.08% of Nominal)

Pass  140                .0924  ( .11 sigma)  lower  at F =     .1288
                        (  95.379% of Nominal)

Pass   74                .0862  ( .11 sigma)  higher  at F =  114.82
                        ( 103.74% of Nominal)

Pass  155                .0753  ( .09 sigma)  lower  at F =  141.25
                        (  96.566% of Nominal)

Pass  115                .0734  ( .09 sigma)  lower  at F =  114.82
                        (  96.822% of Nominal)

Pass  179                .0726  ( .09 sigma)  lower  at F =  165.96
                        (  96.202% of Nominal)

Pass  175                .0605  ( .07 sigma)  higher  at F =  147.91
                        ( 102.84% of Nominal)

Pass  119                .0605  ( .07 sigma)  lower  at F =   97.724
                        (  97.356% of Nominal)

Pass   19                .0563  ( .07 sigma)  higher  at F =  218.78
                        ( 104.61% of Nominal)

Pass   32                .0522  ( .06 sigma)  lower  at F =  208.93
                        (  96.086% of Nominal)

Pass   77                .0421  ( .05 sigma)  lower  at F =     .1175
                        (  97.895% of Nominal)

Pass   84                .0276  ( .03 sigma)  lower  at F =  208.93
                        (  97.928% of Nominal)



          JOB CONCLUDED

**** 11/08/21 22:28:36 ******* PSpice Lite (March 2016) ******* ID# 10813 ****

 ** Profile: "SCHEMATIC1-2"  [ D:\Software\Capture_PSpice\Project\Monte Carlo analysis\Monte Carlo analysis-PSpiceFiles\SCHEMATIC1\2.


 ****     JOB STATISTICS SUMMARY


******************************************************************************



  Total job time (using Solver 1)   =        3.28
