
**** 11/01/21 21:19:36 ******* PSpice Lite (March 2016) ******* ID# 10813 ****

 ** Profile: "Pulse_signal_source-3"  [ D:\Software\Capture_PSpice\Project\Transient analysis and Fourier analysis\Transient analysis


 ****     CIRCUIT DESCRIPTION


******************************************************************************




** Creating circuit file "3.cir" 
** WARNING: THIS AUTOMATICALLY GENERATED FILE MAY BE OVERWRITTEN BY SUBSEQUENT SIMULATIONS

*Libraries: 
* Profile Libraries :
* Local Libraries :
* From [PSPICE NETLIST] section of C:\SPB_Data\cdssetup\OrCAD_PSpice\17.2.0\PSpice.ini file:
.lib "nomd.lib" 

*Analysis directives: 
.TRAN  0 20m 0 
.OPTIONS ADVCONV
.PROBE64 V(alias(*)) I(alias(*)) W(alias(*)) D(alias(*)) NOISE(alias(*)) 
.INC "..\Pulse_signal_source.net" 



**** INCLUDING Pulse_signal_source.net ****
* source TRANSIENT ANALYSIS AND FOURIER ANALYSIS
V_V4         PULSE1 0  
+PULSE 0 5 2m 1u 1u 0.5m 1m
V_v5         PULSE2 0  
+PULSE 0 5 2m 1m 1m 1u 2m
V_V6         PULSE3 0  
+PULSE 5 0 1m 1u 1m 1u 1m

**** RESUMING 3.cir ****
.END

WARNING(ORPSIM-15452): Pulse Period < (Rise Time + Fall Time + Pulse Width) for V_v5.

WARNING(ORPSIM-15452): Pulse Period < (Rise Time + Fall Time + Pulse Width) for V_V6.

WARNING(ORPSIM-15452): Pulse Period < (Rise Time + Fall Time + Pulse Width) for V_v5.

WARNING(ORPSIM-15452): Pulse Period < (Rise Time + Fall Time + Pulse Width) for V_V6.

**** 11/01/21 21:19:36 ******* PSpice Lite (March 2016) ******* ID# 10813 ****

 ** Profile: "Pulse_signal_source-3"  [ D:\Software\Capture_PSpice\Project\Transient analysis and Fourier analysis\Transient analysis


 ****     INITIAL TRANSIENT SOLUTION       TEMPERATURE =   27.000 DEG C


******************************************************************************



 NODE   VOLTAGE     NODE   VOLTAGE     NODE   VOLTAGE     NODE   VOLTAGE


(PULSE1)    0.0000 (PULSE2)    0.0000 (PULSE3)    5.0000 




    VOLTAGE SOURCE CURRENTS
    NAME         CURRENT

    V_V4         0.000E+00
    V_v5         0.000E+00
    V_V6         0.000E+00

    TOTAL POWER DISSIPATION   0.00E+00  WATTS



          JOB CONCLUDED

**** 11/01/21 21:19:36 ******* PSpice Lite (March 2016) ******* ID# 10813 ****

 ** Profile: "Pulse_signal_source-3"  [ D:\Software\Capture_PSpice\Project\Transient analysis and Fourier analysis\Transient analysis


 ****     JOB STATISTICS SUMMARY


******************************************************************************



  Total job time (using Solver 1)   =         .03
