
**** 11/23/21 11:28:27 ******* PSpice Lite (March 2016) ******* ID# 10813 ****

 ** Profile: "SCHEMATIC1-1"  [ G:\030\11.23\23-PSpiceFiles\SCHEMATIC1\1.sim ] 


 ****     CIRCUIT DESCRIPTION


******************************************************************************




** Creating circuit file "1.cir" 
** WARNING: THIS AUTOMATICALLY GENERATED FILE MAY BE OVERWRITTEN BY SUBSEQUENT SIMULATIONS

*Libraries: 
* Profile Libraries :
* Local Libraries :
.LIB "../../../ad627a/ad627a.lib" 
* From [PSPICE NETLIST] section of C:\SPB_Data\cdssetup\OrCAD_PSpice\17.2.0\PSpice.ini file:
.lib "nomd.lib" 

*Analysis directives: 
.TRAN  0 1m 0 
.OPTIONS ADVCONV
.PROBE64 V(alias(*)) I(alias(*)) W(alias(*)) D(alias(*)) NOISE(alias(*)) 
.INC "..\SCHEMATIC1.net" 



**** INCLUDING SCHEMATIC1.net ****
* source 23
X_U1         N01905 N02013 OUT 0 N01913 N02009 +VS -VS AD627A
V_V1         +VS 0 +12
V_V2         -VS 0 -12
V_V3         N01905 N02013  AC 1
+SIN 0 100m 1K 0 0 0
R_R1         N02009 N01913  40.2k TC=0,0 
C_C1         N01805 0  0.1u  TC=0,0 
C_C2         -VS 0  0.1u  TC=0,0 

**** RESUMING 1.cir ****
.END

ERROR(ORPSIM-15141): Less than 2 connections at node N01805.

ERROR(ORPSIM-15142): Node N01805 is floating
