
**** 10/11/21 20:49:04 ******* PSpice Lite (March 2016) ******* ID# 10813 ****

 ** Profile: "SCHEMATIC1-1-DC-V1"  [ D:\Software\Capture_PSpice\Project\DC scan analysis\DC scan analysis-PSpiceFiles\SCHEMATIC1\1-DC


 ****     CIRCUIT DESCRIPTION


******************************************************************************




** Creating circuit file "1-DC-V1.cir" 
** WARNING: THIS AUTOMATICALLY GENERATED FILE MAY BE OVERWRITTEN BY SUBSEQUENT SIMULATIONS

*Libraries: 
* Profile Libraries :
* Local Libraries :
* From [PSPICE NETLIST] section of C:\SPB_Data\cdssetup\OrCAD_PSpice\17.2.0\PSpice.ini file:
.lib "nomd.lib" 

*Analysis directives: 
.DC LIN V_V1 0 20 0.01 
.OPTIONS ADVCONV
.PROBE64 V(alias(*)) I(alias(*)) W(alias(*)) D(alias(*)) NOISE(alias(*)) 
.INC "..\SCHEMATIC1.net" 



**** INCLUDING SCHEMATIC1.net ****
* source DC SCAN ANALYSIS
V_V1         IN 0 12Vdc
R_R1         IN OUT  1k TC=0,0 
R_R2         0 OUT  2k TC=0,0 

**** RESUMING 1-DC-V1.cir ****
.END


          JOB CONCLUDED

**** 10/11/21 20:49:04 ******* PSpice Lite (March 2016) ******* ID# 10813 ****

 ** Profile: "SCHEMATIC1-1-DC-V1"  [ D:\Software\Capture_PSpice\Project\DC scan analysis\DC scan analysis-PSpiceFiles\SCHEMATIC1\1-DC


 ****     JOB STATISTICS SUMMARY


******************************************************************************



  Total job time (using Solver 1)   =         .02
