
**** 11/22/21 10:44:27 ******* PSpice Lite (March 2016) ******* ID# 10813 ****

 ** Profile: "SCHEMATIC1-1"  [ D:\Software\Capture_PSpice\Project\Component creation\Component creation-PSpiceFiles\SCHEMATIC1\1.sim 


 ****     CIRCUIT DESCRIPTION


******************************************************************************




** Creating circuit file "1.cir" 
** WARNING: THIS AUTOMATICALLY GENERATED FILE MAY BE OVERWRITTEN BY SUBSEQUENT SIMULATIONS

*Libraries: 
* Profile Libraries :
* Local Libraries :
.LIB "D:/Software/Capture_PSpice/Module/THS4031/ths4031.lib" 
* From [PSPICE NETLIST] section of C:\SPB_Data\cdssetup\OrCAD_PSpice\17.2.0\PSpice.ini file:
.lib "nomd.lib" 

*Analysis directives: 
.TRAN  0 10m 0 0.01m 
.OPTIONS ADVCONV
.PROBE64 V(alias(*)) I(alias(*)) W(alias(*)) D(alias(*)) NOISE(alias(*)) 
.INC "..\SCHEMATIC1.net" 



**** INCLUDING SCHEMATIC1.net ****
* source COMPONENT CREATION
X_U1         N00195 N00191 VCC VSS OUT THS4031 
V_V1         IN 0  
+SIN 0 10m 1k 0 0 0
R_R1         IN N00191  1k TC=0,0 
R_R2         N00191 OUT  2k TC=0,0 
R_R3         0 N00195  680 TC=0,0 
V_V2         VSS 0 10
V_V3         VSS 0 -10

**** RESUMING 1.cir ****
.END

ERROR(ORPSIM-15143): Voltage source and/or inductor loop involving V_V3. You may break the loop by adding a series resistance
