
**** 11/15/21 20:41:05 ******* PSpice Lite (March 2016) ******* ID# 10813 ****

 ** Profile: "Chebyshev_filter-3"  [ D:\Software\Capture_PSpice\Project\Behavior model creation\Behavior model creation-PSpiceFiles\C


 ****     CIRCUIT DESCRIPTION


******************************************************************************




** Creating circuit file "3.cir" 
** WARNING: THIS AUTOMATICALLY GENERATED FILE MAY BE OVERWRITTEN BY SUBSEQUENT SIMULATIONS

*Libraries: 
* Profile Libraries :
* Local Libraries :
* From [PSPICE NETLIST] section of C:\SPB_Data\cdssetup\OrCAD_PSpice\17.2.0\PSpice.ini file:
.lib "nomd.lib" 

*Analysis directives: 
.AC DEC 100 0.1 100K
.OPTIONS ADVCONV
.PROBE64 V(alias(*)) I(alias(*)) W(alias(*)) D(alias(*)) NOISE(alias(*)) 
.INC "..\Chebyshev_filter.net" 



**** INCLUDING Chebyshev_filter.net ****
* source BEHAVIOR MODEL CREATION
V_V1         N00220 0 DC 0Vdc AC 1Vac 
E_LOPASS1         LOPASS 0 CHEBYSHEV {V(N00220)} LP (10Hz 100Hz) 1dB 100dB
E_HIPASS1         HIPASS 0 CHEBYSHEV {V(N00220)} HP (50Hz 200Hz) 3dB 50dB
E_BPASS1         BANDPASS 0 CHEBYSHEV {V(N00220)} BP (100Hz 300Hz 1000Hz
+  10000Hz) 1dB 50dB
E_BREJ1         BANDREJ 0 CHEBYSHEV {V(N00220)} BR (10Hz 200Hz 300Hz 10000Hz)
+  1dB 50dB

**** RESUMING 3.cir ****
.END

INFO(ORPSIM-16573): AC analysis does not support expression evaluation at each frequency. ABM devices with non-linear operations will be evaluated only at bias point.

**** 11/15/21 20:41:05 ******* PSpice Lite (March 2016) ******* ID# 10813 ****

 ** Profile: "Chebyshev_filter-3"  [ D:\Software\Capture_PSpice\Project\Behavior model creation\Behavior model creation-PSpiceFiles\C


 ****     SMALL SIGNAL BIAS SOLUTION       TEMPERATURE =   27.000 DEG C


******************************************************************************



 NODE   VOLTAGE     NODE   VOLTAGE     NODE   VOLTAGE     NODE   VOLTAGE


(HIPASS)    0.0000 (LOPASS)    0.0000 (N00220)    0.0000 (BANDREJ)    0.0000    

(BANDPASS)    0.0000                  




    VOLTAGE SOURCE CURRENTS
    NAME         CURRENT

    V_V1         0.000E+00

    TOTAL POWER DISSIPATION   0.00E+00  WATTS



          JOB CONCLUDED

**** 11/15/21 20:41:05 ******* PSpice Lite (March 2016) ******* ID# 10813 ****

 ** Profile: "Chebyshev_filter-3"  [ D:\Software\Capture_PSpice\Project\Behavior model creation\Behavior model creation-PSpiceFiles\C


 ****     JOB STATISTICS SUMMARY


******************************************************************************



  Total job time (using Solver 1)   =         .02
