
**** 10/18/21 21:30:38 ******* PSpice Lite (March 2016) ******* ID# 10813 ****

 ** Profile: "SCHEMATIC1-1"  [ D:\Software\Capture_PSpice\Project\Transmission scan analysis\Transmission scan analysis-PSpiceFiles\S


 ****     CIRCUIT DESCRIPTION


******************************************************************************




** Creating circuit file "1.cir" 
** WARNING: THIS AUTOMATICALLY GENERATED FILE MAY BE OVERWRITTEN BY SUBSEQUENT SIMULATIONS

*Libraries: 
* Profile Libraries :
* Local Libraries :
* From [PSPICE NETLIST] section of C:\SPB_Data\cdssetup\OrCAD_PSpice\17.2.0\PSpice.ini file:
.lib "nomd.lib" 

*Analysis directives: 
.DC LIN V_VBB1 0 1.2 0.01 
+ LIN VCC1 0 2 0.2 
.OPTIONS ADVCONV
.PROBE64 V(alias(*)) I(alias(*)) W(alias(*)) D(alias(*)) NOISE(alias(*)) 
.INC "..\SCHEMATIC1.net" 



**** INCLUDING SCHEMATIC1.net ****
* source TRANSMISSION SCAN ANALYSIS
V_VBB1         N00189 0 3Vdc
V_VCC2         N00267 0 12Vdc
I_I1         0 N00237 DC 10uAdc  
V_VCC         N00218 0 12Vdc
Q_Q1         N00218 N00189 0 Q2N3904
Q_Q2         N00267 N00237 0 Q2N3904

**** RESUMING 1.cir ****
.END


ERROR(ORPSIM-15090): DC device VCC1 is undefined
