
**** 12/30/21 14:59:37 ****** PSpice 17.2.0 (March 2016) ****** ID# 0 ********

 ** Profile: "top-SCH1_page"  [ D:\Software\Cadence_PSpice\Project\Comprehensive design 2\general_design1-pspicefiles\top\sch1_page.s


 ****     CIRCUIT DESCRIPTION


******************************************************************************




** Creating circuit file "SCH1_page.cir" 
** WARNING: THIS AUTOMATICALLY GENERATED FILE MAY BE OVERWRITTEN BY SUBSEQUENT SIMULATIONS

*Libraries: 
* Profile Libraries :
* Local Libraries :
* From [PSPICE NETLIST] section of D:\Software\Cadence_PSpice\Cadence\SPB_Data\cdssetup\OrCAD_PSpice\17.2.0\PSpice.ini file:
.lib "nom.lib" 

*Analysis directives: 
.TRAN  0 350m 300m 0.001m 
.OPTIONS ADVCONV
.OPTIONS DIGINITSTATE= 0
.AUTOCONVERGE ITL1=1000 ITL2=1000 ITL4=1000 RELTOL=0.05 ABSTOL=1.0E-6 VNTOL=.001 PIVTOL=1.0E-10 
.PROBE64 V(alias(*)) I(alias(*)) W(alias(*)) D(alias(*)) NOISE(alias(*)) 
.INC "..\top.net" 



**** INCLUDING top.net ****
* source GENERAL_DESIGN1
C_C2         N06943 N02107  10n  TC=0,0 
R_R11         N02107 VCC  10k TC=0,0 
R_R2         N02015 N02005  8k TC=0,0 
R_R12         0 N02107  10k TC=0,0 
R_R1         N02005 N02107  10k TC=0,0 
V_V1         VCC 0 5Vdc
C_C3         0 N02107  10u  TC=0,0 
R_R14         N06943 N02015  1k TC=0,0 
X_U3B         $D_HI N09369 N27738 $D_HI OUT_2 N09369 $G_DPWR $G_DGND 74LS74A
+  PARAMS:
+ IO_LEVEL=0 MNTYMXDLY=0
R_R6         0 OUT2  600 TC=0,0 
X_U2A         $D_HI N09355 OUT1 $D_HI N27738 N09355 $G_DPWR $G_DGND 74LS74A
+  PARAMS:
+ IO_LEVEL=0 MNTYMXDLY=0
X_U4A         N02005 N06943 VCC 0 N02015 LM324
R_R15         N02015 OUT1  250 TC=0,0 
R_R16         0 OUT_1  600 TC=0,0 
X_U4B         VCC_2 N11813 VCC 0 N11785 LM324
C_C4         N11813 N11785  100n  TC=0,0 
R_R18         N11813 N11785  50k TC=0,0 
R_R17         N12428 N11813  1.5k TC=0,0 
C_C5         0 VCC_2  10u  TC=0,0 
R_R19         VCC_2 VCC  10k TC=0,0 
R_R20         0 VCC_2  10k TC=0,0 
C_C6         OUT_2 N12428  10u  TC=0,0 
R_R21         0 OUT3  600 TC=0,0 
C_C7         N11785 OUT3  10u  TC=0,0 
C_C8         OUT1 OUT_1  10u  TC=0,0 
R_R22         OUT_2 N283310  1.3k TC=0,0 
C_C9         N283310 OUT2  10u  TC=0,0 
C_C11         0 N36003  10u  TC=0,0 
R_R34         0 OUT4  600 TC=0,0 
R_R28         N36003 N36093  10k TC=0,0 
X_U6C         N36093 N36287 VCC 0 N36209 LM324
C_C13         OUT3 N41517  10u  TC=0,0 
C_C12         OUT2 N36281  10u  TC=0,0 
R_R32         N36003 VCC  10k TC=0,0 
R_R30         N41517 N36287  10k TC=0,0 
C_C31         N36209 OUT4  10u  TC=0,0 
R_R29         N36281 N36287  10k TC=0,0 
R_R27         N36003 N36093  10k TC=0,0 
R_R33         0 N36003  10k TC=0,0 
R_R31         N36287 N36209  10k TC=0,0 
R_R3         0 N37918  78.6 TC=0,0 
R_R48         0 OUT5  600 TC=0,0 
R_R4         N38136 VCC  10k TC=0,0 
R_R5         0 N38136  10k TC=0,0 
R_R47         OUT4 N37918  4.3k TC=0,0 
C_C29         N38136 0  10u  TC=0,0 
C_C28         N37918 N37928  10n  TC=0,0 
X_U7D         N38136 N37958 VCC 0 N37928 LM324
R_R46         N37958 N37928  154k TC=0,0 
C_C1         N37918 N37958  10n  TC=0,0 
C_C30         N37928 OUT5  10u  TC=0,0 

**** RESUMING SCH1_page.cir ****
.END


**** Generated AtoD and DtoA Interfaces ****

*
* Analog/Digital interface for node OUT1
*
* Moving X_U2A.UFF1:CLK from analog node OUT1 to new digital node OUT1$AtoD
X$OUT1_AtoD1
+ OUT1
+ OUT1$AtoD
+ $G_DPWR
+ $G_DGND
+ AtoD_LS
+       PARAMS: CAPACITANCE=   0     
*
* Analog/Digital interface for node OUT_2
*
* Moving X_U3B.UFF1:Q1 from analog node OUT_2 to new digital node OUT_2$DtoA
X$OUT_2_DtoA1
+ OUT_2$DtoA
+ OUT_2
+ $G_DPWR
+ $G_DGND
+ DtoA_LS
+       PARAMS: DRVH= 108    DRVL= 157    CAPACITANCE=   0     
*
* Analog/Digital interface power supply subcircuits
*
X$DIGIFPWR 0 DIGIFPWR


**** 12/30/21 14:59:37 ****** PSpice 17.2.0 (March 2016) ****** ID# 0 ********

 ** Profile: "top-SCH1_page"  [ D:\Software\Cadence_PSpice\Project\Comprehensive design 2\general_design1-pspicefiles\top\sch1_page.s


 ****     Diode MODEL PARAMETERS


******************************************************************************




               X_U4A.dx        X_U4A.dy        X_U4B.dx        X_U4B.dy        
          IS  800.000000E-18  800.000000E-18  800.000000E-18  800.000000E-18 
          RS    1               1.000000E-03    1               1.000000E-03 
         CJO                   10.000000E-12                   10.000000E-12 


               X_U6C.dx        X_U6C.dy        X_U7D.dx        X_U7D.dy        
          IS  800.000000E-18  800.000000E-18  800.000000E-18  800.000000E-18 
          RS    1               1.000000E-03    1               1.000000E-03 
         CJO                   10.000000E-12                   10.000000E-12 


**** 12/30/21 14:59:37 ****** PSpice 17.2.0 (March 2016) ****** ID# 0 ********

 ** Profile: "top-SCH1_page"  [ D:\Software\Cadence_PSpice\Project\Comprehensive design 2\general_design1-pspicefiles\top\sch1_page.s


 ****     BJT MODEL PARAMETERS


******************************************************************************




               X_U4A.qx        X_U4B.qx        X_U6C.qx        X_U7D.qx        
               PNP             PNP             PNP             PNP             
       LEVEL    1               1               1               1            
          IS  800.000000E-18  800.000000E-18  800.000000E-18  800.000000E-18 
          BF  166.7           166.7           166.7           166.7          
          NF    1               1               1               1            
          BR    1               1               1               1            
          NR    1               1               1               1            
         ISS    0               0               0               0            
          RE    0               0               0               0            
          RC    0               0               0               0            
         CJE    0               0               0               0            
         VJE     .75             .75             .75             .75         
         CJC    0               0               0               0            
         VJC     .75             .75             .75             .75         
         MJC     .33             .33             .33             .33         
        XCJC    1               1               1               1            
         CJS    0               0               0               0            
         VJS     .75             .75             .75             .75         
          KF    0               0               0               0            
          AF    1               1               1               1            
          CN    2.2             2.2             2.2             2.2          
           D     .52             .52             .52             .52         


**** 12/30/21 14:59:37 ****** PSpice 17.2.0 (March 2016) ****** ID# 0 ********

 ** Profile: "top-SCH1_page"  [ D:\Software\Cadence_PSpice\Project\Comprehensive design 2\general_design1-pspicefiles\top\sch1_page.s


 ****     Current Controlled Switch MODEL PARAMETERS


******************************************************************************




               X_U4A.sw2       X_U4A.sw1       X_U4A.sw3       X_U4A.sw4       
         RON    1               1               1               1            
        ROFF   10.000000E+06   10.000000E+06   10.000000E+06   10.000000E+06 
         ION    0              -1.000000E-06   -1.000000E-06    0            
        IOFF   -1.000000E-06    0               0              -1.000000E-06 


               X_U4B.sw2       X_U4B.sw1       X_U4B.sw3       X_U4B.sw4       
         RON    1               1               1               1            
        ROFF   10.000000E+06   10.000000E+06   10.000000E+06   10.000000E+06 
         ION    0              -1.000000E-06   -1.000000E-06    0            
        IOFF   -1.000000E-06    0               0              -1.000000E-06 


               X_U6C.sw2       X_U6C.sw1       X_U6C.sw3       X_U6C.sw4       
         RON    1               1               1               1            
        ROFF   10.000000E+06   10.000000E+06   10.000000E+06   10.000000E+06 
         ION    0              -1.000000E-06   -1.000000E-06    0            
        IOFF   -1.000000E-06    0               0              -1.000000E-06 


               X_U7D.sw2       X_U7D.sw1       X_U7D.sw3       X_U7D.sw4       
         RON    1               1               1               1            
        ROFF   10.000000E+06   10.000000E+06   10.000000E+06   10.000000E+06 
         ION    0              -1.000000E-06   -1.000000E-06    0            
        IOFF   -1.000000E-06    0               0              -1.000000E-06 


**** 12/30/21 14:59:37 ****** PSpice 17.2.0 (March 2016) ****** ID# 0 ********

 ** Profile: "top-SCH1_page"  [ D:\Software\Cadence_PSpice\Project\Comprehensive design 2\general_design1-pspicefiles\top\sch1_page.s


 ****     Digital Input MODEL PARAMETERS


******************************************************************************




               DIN74LS         
      S0NAME 0               
       S0TSW    5.000000E-09 
       S0RLO    1            
       S0RHI  100.000000E+03 
      S1NAME 1               
       S1TSW    4.500000E-09 
       S1RLO  100.000000E+03 
       S1RHI    1            
      S2NAME X               
       S2TSW    4.500000E-09 
       S2RLO   30.9          
       S2RHI  100            
      S3NAME R               
       S3TSW    4.500000E-09 
       S3RLO   30.9          
       S3RHI  100            
      S4NAME F               
       S4TSW    4.500000E-09 
       S4RLO   30.9          
       S4RHI  100            
      S5NAME Z               
       S5TSW    4.500000E-09 
       S5RLO  200.000000E+03 
       S5RHI  200.000000E+03 


**** 12/30/21 14:59:37 ****** PSpice 17.2.0 (March 2016) ****** ID# 0 ********

 ** Profile: "top-SCH1_page"  [ D:\Software\Cadence_PSpice\Project\Comprehensive design 2\general_design1-pspicefiles\top\sch1_page.s


 ****     Digital Output MODEL PARAMETERS


******************************************************************************




               DO74LS          
    TIMESTEP  100.000000E-12 
      S0NAME X               
       S0VHI    2            
       S0VLO     .8          
      S1NAME 0               
       S1VHI     .8          
       S1VLO   -1.5          
      S2NAME R               
       S2VHI    1.2          
       S2VLO     .8          
      S3NAME R               
       S3VHI    2            
       S3VLO    1.1          
      S4NAME X               
       S4VHI    2            
       S4VLO     .8          
      S5NAME 1               
       S5VHI    7            
       S5VLO    2            
      S6NAME F               
       S6VHI    2            
       S6VLO    1.1          
      S7NAME F               
       S7VHI    1.2          
       S7VLO     .8          


**** 12/30/21 14:59:37 ****** PSpice 17.2.0 (March 2016) ****** ID# 0 ********

 ** Profile: "top-SCH1_page"  [ D:\Software\Cadence_PSpice\Project\Comprehensive design 2\general_design1-pspicefiles\top\sch1_page.s


 ****     Digital Edge Triggered FF MODEL PARAMETERS


******************************************************************************




               D_LS74          
  TPCLKQLHMN    5.200000E-09 
  TPCLKQLHTY   13.000000E-09 
  TPCLKQLHMX   25.000000E-09 
  TPCLKQHLMN   10.000000E-09 
  TPCLKQHLTY   25.000000E-09 
  TPCLKQHLMX   40.000000E-09 
   TPPCQLHMN    5.200000E-09 
   TPPCQLHTY   13.000000E-09 
   TPPCQLHMX   25.000000E-09 
   TPPCQHLMN   10.000000E-09 
   TPPCQHLTY   25.000000E-09 
   TPPCQHLMX   40.000000E-09 
    TWCLKLMN    0            
    TWCLKLTY    0            
    TWCLKLMX    0            
    TWCLKHMN   25.000000E-09 
    TWCLKHTY   25.000000E-09 
    TWCLKHMX   25.000000E-09 
     TWPCLMN   25.000000E-09 
     TWPCLTY   25.000000E-09 
     TWPCLMX   25.000000E-09 
   TSUDCLKMN   20.000000E-09 
   TSUDCLKTY   20.000000E-09 
   TSUDCLKMX   20.000000E-09 
 TSUPCCLKHMN    0            
 TSUPCCLKHTY    0            
 TSUPCCLKHMX    0            
    THDCLKMN    5.000000E-09 
    THDCLKTY    5.000000E-09 
    THDCLKMX    5.000000E-09 
  TSUCECLKMN    0            
  TSUCECLKTY    0            
  TSUCECLKMX    0            
   THCECLKMN    0            
   THCECLKTY    0            
   THCECLKMX    0            


**** 12/30/21 14:59:37 ****** PSpice 17.2.0 (March 2016) ****** ID# 0 ********

 ** Profile: "top-SCH1_page"  [ D:\Software\Cadence_PSpice\Project\Comprehensive design 2\general_design1-pspicefiles\top\sch1_page.s


 ****     Digital IO  MODEL PARAMETERS


******************************************************************************




               IO_LS           
        DRVL  157            
        DRVH  108            
       AtoD1 AtoD_LS         
       AtoD2 AtoD_LS_NX      
       AtoD3 AtoD_LS         
       AtoD4 AtoD_LS_NX      
       DtoA1 DtoA_LS         
       DtoA2 DtoA_LS         
       DtoA3 DtoA_LS         
       DtoA4 DtoA_LS         
      TSWHL1    2.724000E-09 
      TSWHL2    2.724000E-09 
      TSWHL3    2.724000E-09 
      TSWHL4    2.724000E-09 
      TSWLH1    2.104000E-09 
      TSWLH2    2.104000E-09 
      TSWLH3    2.104000E-09 
      TSWLH4    2.104000E-09 
       TPWRT  100.000000E+03 


**** 12/30/21 14:59:37 ****** PSpice 17.2.0 (March 2016) ****** ID# 0 ********

 ** Profile: "top-SCH1_page"  [ D:\Software\Cadence_PSpice\Project\Comprehensive design 2\general_design1-pspicefiles\top\sch1_page.s


 ****     INITIAL TRANSIENT SOLUTION       TEMPERATURE =   27.000 DEG C


******************************************************************************



 NODE   VOLTAGE     NODE   VOLTAGE     NODE   VOLTAGE     NODE   VOLTAGE


(  VCC)    5.0000  ( OUT1)    2.5000  ( OUT2)    0.0000  ( OUT3)    0.0000      

( OUT4)    0.0000  ( OUT5)    0.0000  (OUT_1)    0.0000  (OUT_2)     .1015      

(VCC_2)    2.5002  (N02005)    2.5002 (N02015)    2.5000 (N02107)    2.5001     

(N06943)    2.5000 (N11785)    2.4978 (N11813)    2.5000 (N12428)    2.5000     

(N36003)    2.5002 (N36093)    2.5004 (N36209)    2.4998 (N36281)    2.5003     

(N36287)    2.5003 (N37918)    0.0000 (N37928)    2.4931 (N37958)    2.5000     

(N38136)    2.5002 (N41517)    2.5003 ($G_DGND)    0.0000                       

($G_DPWR)    5.0000                   (N283310)     .1015                       

(X_U4A.6) 3.025E-09                   (X_U4A.7)    2.5000                       

(X_U4A.8)    2.5000                   (X_U4A.9)    0.0000                       

(X_U4A.a)    5.0000                   (X_U4A.b) 96.43E-09                       

(X_U4B.6) 418.2E-09                   (X_U4B.7)    2.4978                       

(X_U4B.8)    2.4978                   (X_U4B.9)    0.0000                       

(X_U4B.a)    5.0000                   (X_U4B.b) 49.43E-09                       

(X_U6C.6) 37.03E-09                   (X_U6C.7)    2.4998                       

(X_U6C.8)    2.4998                   (X_U6C.9)    0.0000                       

(X_U6C.a)    5.0000                   (X_U6C.b) 49.43E-09                       

(X_U7D.6) 1.300E-06                   (X_U7D.7)    2.4931                       

(X_U7D.8)    2.4931                   (X_U7D.9)    0.0000                       

(X_U7D.a)    5.0000                   (X_U7D.b) 49.43E-09                       

(X_U4A.10)    3.1078                  (X_U4A.11)     .0398                      

(X_U4A.12)     .0396                  (X_U4A.13)    3.0939                      

(X_U4A.14)    3.0940                  (X_U4A.53)    3.5000                      

(X_U4A.54)     .8220                  (X_U4A.90)-74.65E-06                      

(X_U4A.91)   40.0000                  (X_U4A.92)  -40.0000                      

(X_U4A.99)    2.5000                  (X_U4B.10)    3.1078                      

(X_U4B.11)     .0398                  (X_U4B.12)     .0396                      

(X_U4B.13)    3.0939                  (X_U4B.14)    3.0940                      

(X_U4B.53)    3.5000                  (X_U4B.54)     .8220                      

(X_U4B.90)-44.96E-06                  (X_U4B.91)   40.0000                      

(X_U4B.92)  -40.0000                  (X_U4B.99)    2.5000                      

(X_U6C.10)    3.1080                  (X_U6C.11)     .0398                      

(X_U6C.12)     .0396                  (X_U6C.13)    3.0941                      

(X_U6C.14)    3.0942                  (X_U6C.53)    3.5000                      

(X_U6C.54)     .8220                  (X_U6C.90)-44.96E-06                      

(X_U6C.91)   40.0000                  (X_U6C.92)  -40.0000                      

(X_U6C.99)    2.5000                  (X_U7D.10)    3.1078                      

(X_U7D.11)     .0398                  (X_U7D.12)     .0396                      

(X_U7D.13)    3.0939                  (X_U7D.14)    3.0940                      

(X_U7D.53)    3.5000                  (X_U7D.54)     .8220                      

(X_U7D.90)-44.96E-06                  (X_U7D.91)   40.0000                      

(X_U7D.92)  -40.0000                  (X_U7D.99)    2.5000                      

(X$OUT_2_DtoA1.DGND_OL)     .1014     (X$OUT_2_DtoA1.DPWR_OH)    3.4493     



 DGTL NODE : STATE  DGTL NODE : STATE  DGTL NODE : STATE  DGTL NODE : STATE


(OUT_2$DtoA) : 0   (OUT1$AtoD) : 1    (   $D_HI) : 1     (  N27738) : 0         

(  N09355) : 1     (  N09369) : 1     




    VOLTAGE SOURCE CURRENTS
    NAME         CURRENT

    V_V1        -3.265E-03
    X_U4A.vb     3.025E-14
    X_U4A.vc     1.001E-12
    X_U4A.ve     1.566E-12
    X_U4A.vlim  -7.465E-08
    X_U4A.vlp   -4.000E-11
    X_U4A.vln   -4.000E-11
    X_U4B.vb     4.182E-12
    X_U4B.vc     1.003E-12
    X_U4B.ve     1.564E-12
    X_U4B.vlim  -4.496E-08
    X_U4B.vlp   -4.000E-11
    X_U4B.vln   -4.000E-11
    X_U6C.vb     3.703E-13
    X_U6C.vc     1.001E-12
    X_U6C.ve     1.566E-12
    X_U6C.vlim  -4.496E-08
    X_U6C.vlp   -4.000E-11
    X_U6C.vln   -4.000E-11
    X_U7D.vb     1.300E-11
    X_U7D.vc     1.008E-12
    X_U7D.ve     1.559E-12
    X_U7D.vlim  -4.496E-08
    X_U7D.vlp   -4.000E-11
    X_U7D.vln   -4.000E-11
    X$DIGIFPWR.VDPWR  -3.848E-05
    X$DIGIFPWR.VDGND  -5.000E-06

    TOTAL POWER DISSIPATION   1.65E-02  WATTS

Convergence problem in transient analysis at Time =  15.21E-06
         Time step =  195.3E-15, minimum allowable step size =  350.0E-15

  These supply currents failed to converge:

    I(X_U4B.egnd)             =    91.21nA  \    90.79nA
    I(X_U7D.egnd)             =    91.11nA  \    90.89nA
    I(X_U4B.vc)               =   -2.209nA  \   118.38pA
    I(X_U4B.ve)               =    1.914nA  \   -99.99pA
    I(X_U4B.vlim)             =   -45.34nA  \   -44.92nA
    I(X_U6C.vc)               =  -458.86pA  \   -80.77pA
    I(X_U6C.ve)               =   399.23pA  \    72.38pA
    I(X_U6C.vlim)             =   -45.04nA  \   -44.97nA
    I(X_U7D.vc)               =   -1.536nA  \  -261.51pA
    I(X_U7D.ve)               =    1.335nA  \   229.28pA
    I(X_U7D.vlim)             =   -45.24nA  \   -45.01nA



  Last node voltages tried were:

 NODE   VOLTAGE     NODE   VOLTAGE     NODE   VOLTAGE     NODE   VOLTAGE


(  VCC)    5.0000  ( OUT1)    2.0000  ( OUT2) 245.6E-09  ( OUT3)-337.2E-12      

( OUT4)-31.37E-12  ( OUT5) 572.2E-12  (OUT_1)    -.4999  (OUT_2)     .1015      

(VCC_2)    2.5002  (N02005)    2.1069 (N02015)    1.7917 (N02107)    2.5000     

(N06943)    2.4424 (N11785)    2.4978 (N11813)    2.5000 (N12428)    2.5000     

(N36003)    2.5002 (N36093)    2.5004 (N36209)    2.4998 (N36281)    2.5003     

(N36287)    2.5003 (N37918) 571.9E-12 (N37928)    2.4931 (N37958)    2.5000     

(N38136)    2.5002 (N41517)    2.5003 ($G_DGND)    0.0000                       

($G_DPWR)    5.0000                   (N283310)     .1015                       

(X_U4A.6) 183.6E-06                   (X_U4A.7)    1.7152                       

(X_U4A.8)    1.7152                   (X_U4A.9)    0.0000                       

(X_U4A.a)     .0015                   (X_U4A.b)     .0015                       

(X_U4B.6) 398.8E-09                   (X_U4B.7)    2.4978                       

(X_U4B.8)    2.4978                   (X_U4B.9)    0.0000                       

(X_U4B.a)    5.0000                   (X_U4B.b) 49.93E-09                       

(X_U6C.6) 32.90E-09                   (X_U6C.7)    2.4998                       

(X_U6C.8)    2.4998                   (X_U6C.9)    0.0000                       

(X_U6C.a)    5.0000                   (X_U6C.b) 49.54E-09                       

(X_U7D.6) 1.286E-06                   (X_U7D.7)    2.4931                       

(X_U7D.8)    2.4931                   (X_U7D.9)    0.0000                       

(X_U7D.a)    5.0000                   (X_U7D.b) 49.80E-09                       

(X_U4A.10)    2.7465                  (X_U4A.11) 25.62E-06                      

(X_U4A.12)     .0795                  (X_U4A.13)    2.7465                      

(X_U4A.14)    2.7187                  (X_U4A.53)    3.5000                      

(X_U4A.54)     .8220                  (X_U4A.90)   -1.5293                      

(X_U4A.91)   40.0000                  (X_U4A.92)  -40.0000                      

(X_U4A.99)    2.5000                  (X_U4B.10)    3.1078                      

(X_U4B.11)     .0398                  (X_U4B.12)     .0396                      

(X_U4B.13)    3.0939                  (X_U4B.14)    3.0940                      

(X_U4B.53)    3.5000                  (X_U4B.54)     .8220                      

(X_U4B.90)-45.34E-06                  (X_U4B.91)   40.0000                      

(X_U4B.92)  -40.0000                  (X_U4B.99)    2.5000                      

(X_U6C.10)    3.1080                  (X_U6C.11)     .0398                      

(X_U6C.12)     .0396                  (X_U6C.13)    3.0941                      

(X_U6C.14)    3.0942                  (X_U6C.53)    3.5000                      

(X_U6C.54)     .8220                  (X_U6C.90)-45.04E-06                      

(X_U6C.91)   40.0000                  (X_U6C.92)  -40.0000                      

(X_U6C.99)    2.5000                  (X_U7D.10)    3.1078                      

(X_U7D.11)     .0398                  (X_U7D.12)     .0396                      

(X_U7D.13)    3.0939                  (X_U7D.14)    3.0940                      

(X_U7D.53)    3.5000                  (X_U7D.54)     .8220                      

(X_U7D.90)-45.24E-06                  (X_U7D.91)   40.0000                      

(X_U7D.92)  -40.0000                  (X_U7D.99)    2.5000                      

(X$OUT_2_DtoA1.DGND_OL)     .1014     (X$OUT_2_DtoA1.DPWR_OH)    3.4493     



 DGTL NODE : STATE  DGTL NODE : STATE  DGTL NODE : STATE  DGTL NODE : STATE


(OUT_2$DtoA) : 0   (OUT1$AtoD) : 1    (   $D_HI) : 1     (  N27738) : 0         

(  N09355) : 1     (  N09369) : 1     

Resuming Simulation with the following settings
ITL4 = 1000
ABSTOL = 1.26e-010



          JOB CONCLUDED
 AutoConverge Simulator Options
 ITL1 = 150
 ITL2 = 20
 ITL4 = 10
 RELTOL = 0.001
 ABSTOL = 1.25893e-010
 VNTOL = 1e-006
 PIVTOL = 1e-013

**** 12/30/21 14:59:37 ****** PSpice 17.2.0 (March 2016) ****** ID# 0 ********

 ** Profile: "top-SCH1_page"  [ D:\Software\Cadence_PSpice\Project\Comprehensive design 2\general_design1-pspicefiles\top\sch1_page.s


 ****     JOB STATISTICS SUMMARY


******************************************************************************



  Total job time (using Solver 1)   =      154.19
