
**** 11/15/21 21:05:52 ******* PSpice Lite (March 2016) ******* ID# 10813 ****

 ** Profile: "Equivalent_element-6"  [ D:\Software\Capture_PSpice\Project\Behavior model creation\Behavior model creation-PSpiceFiles


 ****     CIRCUIT DESCRIPTION


******************************************************************************




** Creating circuit file "6.cir" 
** WARNING: THIS AUTOMATICALLY GENERATED FILE MAY BE OVERWRITTEN BY SUBSEQUENT SIMULATIONS

*Libraries: 
* Profile Libraries :
* Local Libraries :
* From [PSPICE NETLIST] section of C:\SPB_Data\cdssetup\OrCAD_PSpice\17.2.0\PSpice.ini file:
.lib "nomd.lib" 

*Analysis directives: 
.TRAN  0 10MS 0 
.OPTIONS ADVCONV
.PROBE64 V(alias(*)) I(alias(*)) W(alias(*)) D(alias(*)) NOISE(alias(*)) 
.INC "..\Equivalent_element.net" 



**** INCLUDING Equivalent_element.net ****
* source BEHAVIOR MODEL CREATION
V_V1         IN_EV 0  
+SIN 0 1 1K 0 0 0
E_E1         OUT_EV 0 VALUE { 2*V(IN_EV) }

**** RESUMING 6.cir ****
.END

**** 11/15/21 21:05:52 ******* PSpice Lite (March 2016) ******* ID# 10813 ****

 ** Profile: "Equivalent_element-6"  [ D:\Software\Capture_PSpice\Project\Behavior model creation\Behavior model creation-PSpiceFiles


 ****     INITIAL TRANSIENT SOLUTION       TEMPERATURE =   27.000 DEG C


******************************************************************************



 NODE   VOLTAGE     NODE   VOLTAGE     NODE   VOLTAGE     NODE   VOLTAGE


(IN_EV)    0.0000  (OUT_EV)    0.0000 




    VOLTAGE SOURCE CURRENTS
    NAME         CURRENT

    V_V1         0.000E+00

    TOTAL POWER DISSIPATION   0.00E+00  WATTS



          JOB CONCLUDED

**** 11/15/21 21:05:52 ******* PSpice Lite (March 2016) ******* ID# 10813 ****

 ** Profile: "Equivalent_element-6"  [ D:\Software\Capture_PSpice\Project\Behavior model creation\Behavior model creation-PSpiceFiles


 ****     JOB STATISTICS SUMMARY


******************************************************************************



  Total job time (using Solver 1)   =         .02
