
**** 11/01/21 20:55:05 ******* PSpice Lite (March 2016) ******* ID# 10813 ****

 ** Profile: "Transient_signal_source-2"  [ D:\Software\Capture_PSpice\Project\Transient analysis and Fourier analysis\Transient anal


 ****     CIRCUIT DESCRIPTION


******************************************************************************




** Creating circuit file "2.cir" 
** WARNING: THIS AUTOMATICALLY GENERATED FILE MAY BE OVERWRITTEN BY SUBSEQUENT SIMULATIONS

*Libraries: 
* Profile Libraries :
* Local Libraries :
* From [PSPICE NETLIST] section of C:\SPB_Data\cdssetup\OrCAD_PSpice\17.2.0\PSpice.ini file:
.lib "nomd.lib" 

*Analysis directives: 
.TRAN  0 10m 0 0.001 
.OPTIONS ADVCONV
.PROBE64 V(alias(*)) I(alias(*)) W(alias(*)) D(alias(*)) NOISE(alias(*)) 
.INC "..\Transient_signal_source.net" 



**** INCLUDING Transient_signal_source.net ****
* source TRANSIENT ANALYSIS AND FOURIER ANALYSIS
V_V1         SIN1 0  AC 0
+SIN 0 2 1k 0 0 0
V_V2         SIN2 0  AC 0
+SIN 2 2 500 0 200 0
V_V3         SIN3 0  AC 0
+SIN 0 1 1k 1m -200 90

**** RESUMING 2.cir ****
.END

**** 11/01/21 20:55:05 ******* PSpice Lite (March 2016) ******* ID# 10813 ****

 ** Profile: "Transient_signal_source-2"  [ D:\Software\Capture_PSpice\Project\Transient analysis and Fourier analysis\Transient anal


 ****     INITIAL TRANSIENT SOLUTION       TEMPERATURE =   27.000 DEG C


******************************************************************************



 NODE   VOLTAGE     NODE   VOLTAGE     NODE   VOLTAGE     NODE   VOLTAGE


( SIN1)    0.0000  ( SIN2)    2.0000  ( SIN3)    1.0000  




    VOLTAGE SOURCE CURRENTS
    NAME         CURRENT

    V_V1         0.000E+00
    V_V2         0.000E+00
    V_V3         0.000E+00

    TOTAL POWER DISSIPATION   0.00E+00  WATTS



          JOB CONCLUDED

**** 11/01/21 20:55:05 ******* PSpice Lite (March 2016) ******* ID# 10813 ****

 ** Profile: "Transient_signal_source-2"  [ D:\Software\Capture_PSpice\Project\Transient analysis and Fourier analysis\Transient anal


 ****     JOB STATISTICS SUMMARY


******************************************************************************



  Total job time (using Solver 1)   =        0.00
