
**** 11/09/21 18:28:53 ******* PSpice Lite (March 2016) ******* ID# 10813 ****

 ** Profile: "SCHEMATIC1-1"  [ D:\Software\Capture_PSpice\Project\9.3\jj-PSpiceFiles\SCHEMATIC1\1.sim ] 


 ****     CIRCUIT DESCRIPTION


******************************************************************************




** Creating circuit file "1.cir" 
** WARNING: THIS AUTOMATICALLY GENERATED FILE MAY BE OVERWRITTEN BY SUBSEQUENT SIMULATIONS

*Libraries: 
* Profile Libraries :
* Local Libraries :
* From [PSPICE NETLIST] section of C:\SPB_Data\cdssetup\OrCAD_PSpice\17.2.0\PSpice.ini file:
.lib "nomd.lib" 

*Analysis directives: 
.AC DEC 100 0.1 10k
.MC 200 AC V([OUT]) YMAX OUTPUT ALL 
.OPTIONS ADVCONV
.PROBE64 V(alias(*)) I(alias(*)) W(alias(*)) D(alias(*)) NOISE(alias(*)) 
.INC "..\SCHEMATIC1.net" 



**** INCLUDING SCHEMATIC1.net ****
* source JJ
V_V1         N00378 0 DC 0Vdc AC 1Vac 
R_R2         N00378 N00323 R_R2 1..5k TC=0,0 
.model        R_R2 RES R=1 DEV=10% TC1=0 TC2=0
R_R3         N00323 0 R_R3 1.5k TC=0,0 
.model        R_R3 RES R=1 DEV=10% TC1=0 TC2=0
R_R4         N00296 OUT R_R4 150K TC=0,0 
.model        R_R4 RES R=1 DEV=10% TC1=0 TC2=0
C_C1         N00323 N00296 C_C1 10n  TC=0,0 
.model        C_C1 CAP C=1 DEV=10% TC1=0 TC2=0 VC1=0 VC2=0
X_U1         0 N00296 VCC VEE OUT uA741
V_V2         VCC 0 12Vdc
V_V3         VEE 0 -11Vdc
C_C2         N00323 OUT C_C2 10n  TC=0,0 
.model        C_C2 CAP C=1 DEV=10% TC1=0 TC2=0 VC1=0 VC2=0

**** RESUMING 1.cir ****
.END

**** 11/09/21 18:28:53 ******* PSpice Lite (March 2016) ******* ID# 10813 ****

 ** Profile: "SCHEMATIC1-1"  [ D:\Software\Capture_PSpice\Project\9.3\jj-PSpiceFiles\SCHEMATIC1\1.sim ] 


 ****     Diode MODEL PARAMETERS


******************************************************************************




               X_U1.dx         X_U1.dy         
          IS  800.000000E-18  800.000000E-18 
          RS    1               1.000000E-03 
         CJO                   10.000000E-12 


**** 11/09/21 18:28:53 ******* PSpice Lite (March 2016) ******* ID# 10813 ****

 ** Profile: "SCHEMATIC1-1"  [ D:\Software\Capture_PSpice\Project\9.3\jj-PSpiceFiles\SCHEMATIC1\1.sim ] 


 ****     BJT MODEL PARAMETERS


******************************************************************************




               X_U1.qx         
               NPN             
       LEVEL    1            
          IS  800.000000E-18 
          BF   93.75         
          NF    1            
          BR    1            
          NR    1            
         ISS    0            
          RE    0            
          RC    0            
         CJE    0            
         VJE     .75         
         CJC    0            
         VJC     .75         
         MJC     .33         
        XCJC    1            
         CJS    0            
         VJS     .75         
          KF    0            
          AF    1            
          CN    2.42         
           D     .87         


**** 11/09/21 18:28:53 ******* PSpice Lite (March 2016) ******* ID# 10813 ****

 ** Profile: "SCHEMATIC1-1"  [ D:\Software\Capture_PSpice\Project\9.3\jj-PSpiceFiles\SCHEMATIC1\1.sim ] 


 ****     Resistor MODEL PARAMETERS


******************************************************************************




               R_R2            R_R3            R_R4            
           R    1               1               1            


**** 11/09/21 18:28:53 ******* PSpice Lite (March 2016) ******* ID# 10813 ****

 ** Profile: "SCHEMATIC1-1"  [ D:\Software\Capture_PSpice\Project\9.3\jj-PSpiceFiles\SCHEMATIC1\1.sim ] 


 ****     Capacitor MODEL PARAMETERS


******************************************************************************




               C_C1            C_C2            
           C    1               1            


**** 11/09/21 18:28:53 ******* PSpice Lite (March 2016) ******* ID# 10813 ****

 ** Profile: "SCHEMATIC1-1"  [ D:\Software\Capture_PSpice\Project\9.3\jj-PSpiceFiles\SCHEMATIC1\1.sim ] 


 ****     SMALL SIGNAL BIAS SOLUTION       TEMPERATURE =   27.000 DEG C

                      MONTE CARLO NOMINAL

******************************************************************************



 NODE   VOLTAGE     NODE   VOLTAGE     NODE   VOLTAGE     NODE   VOLTAGE


(  OUT)     .0120  (  VCC)   12.0000  (  VEE)  -11.0000  (N00296) 37.59E-06     

(N00323)    0.0000 (N00378)    0.0000 (X_U1.6) 46.00E-06 (X_U1.7)     .0120     

(X_U1.8)     .0120 (X_U1.9)    0.0000 (X_U1.10)    -.6076                       

(X_U1.11)   11.9600                   (X_U1.12)   11.9600                       

(X_U1.13)    -.5937                   (X_U1.14)    -.5937                       

(X_U1.53)   11.0000                   (X_U1.54)  -10.0000                       

(X_U1.90) 79.58E-06                   (X_U1.91)   40.0000                       

(X_U1.92)  -40.0000                   (X_U1.99)     .5000                   




    VOLTAGE SOURCE CURRENTS
    NAME         CURRENT

    V_V1         0.000E+00
    V_V2        -1.281E-03
    V_V3         1.282E-03
    X_U1.vb      4.600E-10
    X_U1.vc      1.099E-11
    X_U1.ve      1.138E-11
    X_U1.vlim    7.958E-08
    X_U1.vlp    -4.000E-11
    X_U1.vln    -4.000E-11

    TOTAL POWER DISSIPATION   2.95E-02  WATTS


**** 11/09/21 18:28:53 ******* PSpice Lite (March 2016) ******* ID# 10813 ****

 ** Profile: "SCHEMATIC1-1"  [ D:\Software\Capture_PSpice\Project\9.3\jj-PSpiceFiles\SCHEMATIC1\1.sim ] 


 ****     SMALL SIGNAL BIAS SOLUTION       TEMPERATURE =   27.000 DEG C

                      MONTE CARLO PASS 2

******************************************************************************



 NODE   VOLTAGE     NODE   VOLTAGE     NODE   VOLTAGE     NODE   VOLTAGE


(  OUT)     .0114  (  VCC)   12.0000  (  VEE)  -11.0000  (N00296) 37.60E-06     

(N00323)    0.0000 (N00378)    0.0000 (X_U1.6) 46.05E-06 (X_U1.7)     .0114     

(X_U1.8)     .0114 (X_U1.9)    0.0000 (X_U1.10)    -.6076                       

(X_U1.11)   11.9600                   (X_U1.12)   11.9600                       

(X_U1.13)    -.5937                   (X_U1.14)    -.5937                       

(X_U1.53)   11.0000                   (X_U1.54)  -10.0000                       

(X_U1.90) 79.58E-06                   (X_U1.91)   40.0000                       

(X_U1.92)  -40.0000                   (X_U1.99)     .5000                   




    VOLTAGE SOURCE CURRENTS
    NAME         CURRENT

    V_V1         0.000E+00
    V_V2        -1.281E-03
    V_V3         1.282E-03
    X_U1.vb      4.605E-10
    X_U1.vc      1.099E-11
    X_U1.ve      1.138E-11
    X_U1.vlim    7.958E-08
    X_U1.vlp    -4.000E-11
    X_U1.vln    -4.000E-11

    TOTAL POWER DISSIPATION   2.95E-02  WATTS


**** 11/09/21 18:28:53 ******* PSpice Lite (March 2016) ******* ID# 10813 ****

 ** Profile: "SCHEMATIC1-1"  [ D:\Software\Capture_PSpice\Project\9.3\jj-PSpiceFiles\SCHEMATIC1\1.sim ] 


 ****     SMALL SIGNAL BIAS SOLUTION       TEMPERATURE =   27.000 DEG C

                      MONTE CARLO PASS 3

******************************************************************************



 NODE   VOLTAGE     NODE   VOLTAGE     NODE   VOLTAGE     NODE   VOLTAGE


(  OUT)     .0116  (  VCC)   12.0000  (  VEE)  -11.0000  (N00296) 37.60E-06     

(N00323)    0.0000 (N00378)    0.0000 (X_U1.6) 46.03E-06 (X_U1.7)     .0116     

(X_U1.8)     .0116 (X_U1.9)    0.0000 (X_U1.10)    -.6076                       

(X_U1.11)   11.9600                   (X_U1.12)   11.9600                       

(X_U1.13)    -.5937                   (X_U1.14)    -.5937                       

(X_U1.53)   11.0000                   (X_U1.54)  -10.0000                       

(X_U1.90) 79.58E-06                   (X_U1.91)   40.0000                       

(X_U1.92)  -40.0000                   (X_U1.99)     .5000                   




    VOLTAGE SOURCE CURRENTS
    NAME         CURRENT

    V_V1         0.000E+00
    V_V2        -1.281E-03
    V_V3         1.282E-03
    X_U1.vb      4.603E-10
    X_U1.vc      1.099E-11
    X_U1.ve      1.138E-11
    X_U1.vlim    7.958E-08
    X_U1.vlp    -4.000E-11
    X_U1.vln    -4.000E-11

    TOTAL POWER DISSIPATION   2.95E-02  WATTS


**** 11/09/21 18:28:53 ******* PSpice Lite (March 2016) ******* ID# 10813 ****

 ** Profile: "SCHEMATIC1-1"  [ D:\Software\Capture_PSpice\Project\9.3\jj-PSpiceFiles\SCHEMATIC1\1.sim ] 


 ****     SMALL SIGNAL BIAS SOLUTION       TEMPERATURE =   27.000 DEG C

                      MONTE CARLO PASS 4

******************************************************************************



 NODE   VOLTAGE     NODE   VOLTAGE     NODE   VOLTAGE     NODE   VOLTAGE


(  OUT)     .0125  (  VCC)   12.0000  (  VEE)  -11.0000  (N00296) 37.59E-06     

(N00323)    0.0000 (N00378)    0.0000 (X_U1.6) 45.94E-06 (X_U1.7)     .0125     

(X_U1.8)     .0125 (X_U1.9)    0.0000 (X_U1.10)    -.6076                       

(X_U1.11)   11.9600                   (X_U1.12)   11.9600                       

(X_U1.13)    -.5937                   (X_U1.14)    -.5937                       

(X_U1.53)   11.0000                   (X_U1.54)  -10.0000                       

(X_U1.90) 79.58E-06                   (X_U1.91)   40.0000                       

(X_U1.92)  -40.0000                   (X_U1.99)     .5000                   




    VOLTAGE SOURCE CURRENTS
    NAME         CURRENT

    V_V1         0.000E+00
    V_V2        -1.281E-03
    V_V3         1.282E-03
    X_U1.vb      4.594E-10
    X_U1.vc      1.099E-11
    X_U1.ve      1.138E-11
    X_U1.vlim    7.958E-08
    X_U1.vlp    -4.000E-11
    X_U1.vln    -4.000E-11

    TOTAL POWER DISSIPATION   2.95E-02  WATTS


**** 11/09/21 18:28:53 ******* PSpice Lite (March 2016) ******* ID# 10813 ****

 ** Profile: "SCHEMATIC1-1"  [ D:\Software\Capture_PSpice\Project\9.3\jj-PSpiceFiles\SCHEMATIC1\1.sim ] 


 ****     SMALL SIGNAL BIAS SOLUTION       TEMPERATURE =   27.000 DEG C

                      MONTE CARLO PASS 5

******************************************************************************



 NODE   VOLTAGE     NODE   VOLTAGE     NODE   VOLTAGE     NODE   VOLTAGE


(  OUT)     .0118  (  VCC)   12.0000  (  VEE)  -11.0000  (N00296) 37.60E-06     

(N00323)    0.0000 (N00378)    0.0000 (X_U1.6) 46.01E-06 (X_U1.7)     .0118     

(X_U1.8)     .0118 (X_U1.9)    0.0000 (X_U1.10)    -.6076                       

(X_U1.11)   11.9600                   (X_U1.12)   11.9600                       

(X_U1.13)    -.5937                   (X_U1.14)    -.5937                       

(X_U1.53)   11.0000                   (X_U1.54)  -10.0000                       

(X_U1.90) 79.58E-06                   (X_U1.91)   40.0000                       

(X_U1.92)  -40.0000                   (X_U1.99)     .5000                   




    VOLTAGE SOURCE CURRENTS
    NAME         CURRENT

    V_V1         0.000E+00
    V_V2        -1.281E-03
    V_V3         1.282E-03
    X_U1.vb      4.601E-10
    X_U1.vc      1.099E-11
    X_U1.ve      1.138E-11
    X_U1.vlim    7.958E-08
    X_U1.vlp    -4.000E-11
    X_U1.vln    -4.000E-11

    TOTAL POWER DISSIPATION   2.95E-02  WATTS


**** 11/09/21 18:28:53 ******* PSpice Lite (March 2016) ******* ID# 10813 ****

 ** Profile: "SCHEMATIC1-1"  [ D:\Software\Capture_PSpice\Project\9.3\jj-PSpiceFiles\SCHEMATIC1\1.sim ] 


 ****     SMALL SIGNAL BIAS SOLUTION       TEMPERATURE =   27.000 DEG C

                      MONTE CARLO PASS 6

******************************************************************************



 NODE   VOLTAGE     NODE   VOLTAGE     NODE   VOLTAGE     NODE   VOLTAGE


(  OUT)     .0131  (  VCC)   12.0000  (  VEE)  -11.0000  (N00296) 37.59E-06     

(N00323)    0.0000 (N00378)    0.0000 (X_U1.6) 45.89E-06 (X_U1.7)     .0131     

(X_U1.8)     .0131 (X_U1.9)    0.0000 (X_U1.10)    -.6076                       

(X_U1.11)   11.9600                   (X_U1.12)   11.9600                       

(X_U1.13)    -.5937                   (X_U1.14)    -.5937                       

(X_U1.53)   11.0000                   (X_U1.54)  -10.0000                       

(X_U1.90) 79.58E-06                   (X_U1.91)   40.0000                       

(X_U1.92)  -40.0000                   (X_U1.99)     .5000                   




    VOLTAGE SOURCE CURRENTS
    NAME         CURRENT

    V_V1         0.000E+00
    V_V2        -1.281E-03
    V_V3         1.282E-03
    X_U1.vb      4.589E-10
    X_U1.vc      1.099E-11
    X_U1.ve      1.138E-11
    X_U1.vlim    7.958E-08
    X_U1.vlp    -4.000E-11
    X_U1.vln    -4.000E-11

    TOTAL POWER DISSIPATION   2.95E-02  WATTS


**** 11/09/21 18:28:53 ******* PSpice Lite (March 2016) ******* ID# 10813 ****

 ** Profile: "SCHEMATIC1-1"  [ D:\Software\Capture_PSpice\Project\9.3\jj-PSpiceFiles\SCHEMATIC1\1.sim ] 


 ****     SMALL SIGNAL BIAS SOLUTION       TEMPERATURE =   27.000 DEG C

                      MONTE CARLO PASS 7

******************************************************************************



 NODE   VOLTAGE     NODE   VOLTAGE     NODE   VOLTAGE     NODE   VOLTAGE


(  OUT)     .0122  (  VCC)   12.0000  (  VEE)  -11.0000  (N00296) 37.59E-06     

(N00323)    0.0000 (N00378)    0.0000 (X_U1.6) 45.98E-06 (X_U1.7)     .0122     

(X_U1.8)     .0122 (X_U1.9)    0.0000 (X_U1.10)    -.6076                       

(X_U1.11)   11.9600                   (X_U1.12)   11.9600                       

(X_U1.13)    -.5937                   (X_U1.14)    -.5937                       

(X_U1.53)   11.0000                   (X_U1.54)  -10.0000                       

(X_U1.90) 79.58E-06                   (X_U1.91)   40.0000                       

(X_U1.92)  -40.0000                   (X_U1.99)     .5000                   




    VOLTAGE SOURCE CURRENTS
    NAME         CURRENT

    V_V1         0.000E+00
    V_V2        -1.281E-03
    V_V3         1.282E-03
    X_U1.vb      4.598E-10
    X_U1.vc      1.099E-11
    X_U1.ve      1.138E-11
    X_U1.vlim    7.958E-08
    X_U1.vlp    -4.000E-11
    X_U1.vln    -4.000E-11

    TOTAL POWER DISSIPATION   2.95E-02  WATTS


**** 11/09/21 18:28:53 ******* PSpice Lite (March 2016) ******* ID# 10813 ****

 ** Profile: "SCHEMATIC1-1"  [ D:\Software\Capture_PSpice\Project\9.3\jj-PSpiceFiles\SCHEMATIC1\1.sim ] 


 ****     SMALL SIGNAL BIAS SOLUTION       TEMPERATURE =   27.000 DEG C

                      MONTE CARLO PASS 8

******************************************************************************



 NODE   VOLTAGE     NODE   VOLTAGE     NODE   VOLTAGE     NODE   VOLTAGE


(  OUT)     .0116  (  VCC)   12.0000  (  VEE)  -11.0000  (N00296) 37.60E-06     

(N00323)    0.0000 (N00378)    0.0000 (X_U1.6) 46.03E-06 (X_U1.7)     .0116     

(X_U1.8)     .0116 (X_U1.9)    0.0000 (X_U1.10)    -.6076                       

(X_U1.11)   11.9600                   (X_U1.12)   11.9600                       

(X_U1.13)    -.5937                   (X_U1.14)    -.5937                       

(X_U1.53)   11.0000                   (X_U1.54)  -10.0000                       

(X_U1.90) 79.58E-06                   (X_U1.91)   40.0000                       

(X_U1.92)  -40.0000                   (X_U1.99)     .5000                   




    VOLTAGE SOURCE CURRENTS
    NAME         CURRENT

    V_V1         0.000E+00
    V_V2        -1.281E-03
    V_V3         1.282E-03
    X_U1.vb      4.603E-10
    X_U1.vc      1.099E-11
    X_U1.ve      1.138E-11
    X_U1.vlim    7.958E-08
    X_U1.vlp    -4.000E-11
    X_U1.vln    -4.000E-11

    TOTAL POWER DISSIPATION   2.95E-02  WATTS


**** 11/09/21 18:28:53 ******* PSpice Lite (March 2016) ******* ID# 10813 ****

 ** Profile: "SCHEMATIC1-1"  [ D:\Software\Capture_PSpice\Project\9.3\jj-PSpiceFiles\SCHEMATIC1\1.sim ] 


 ****     SMALL SIGNAL BIAS SOLUTION       TEMPERATURE =   27.000 DEG C

                      MONTE CARLO PASS 9

******************************************************************************



 NODE   VOLTAGE     NODE   VOLTAGE     NODE   VOLTAGE     NODE   VOLTAGE


(  OUT)     .0127  (  VCC)   12.0000  (  VEE)  -11.0000  (N00296) 37.59E-06     

(N00323)    0.0000 (N00378)    0.0000 (X_U1.6) 45.93E-06 (X_U1.7)     .0127     

(X_U1.8)     .0127 (X_U1.9)    0.0000 (X_U1.10)    -.6076                       

(X_U1.11)   11.9600                   (X_U1.12)   11.9600                       

(X_U1.13)    -.5937                   (X_U1.14)    -.5937                       

(X_U1.53)   11.0000                   (X_U1.54)  -10.0000                       

(X_U1.90) 79.58E-06                   (X_U1.91)   40.0000                       

(X_U1.92)  -40.0000                   (X_U1.99)     .5000                   




    VOLTAGE SOURCE CURRENTS
    NAME         CURRENT

    V_V1         0.000E+00
    V_V2        -1.281E-03
    V_V3         1.282E-03
    X_U1.vb      4.593E-10
    X_U1.vc      1.099E-11
    X_U1.ve      1.138E-11
    X_U1.vlim    7.958E-08
    X_U1.vlp    -4.000E-11
    X_U1.vln    -4.000E-11

    TOTAL POWER DISSIPATION   2.95E-02  WATTS


**** 11/09/21 18:28:53 ******* PSpice Lite (March 2016) ******* ID# 10813 ****

 ** Profile: "SCHEMATIC1-1"  [ D:\Software\Capture_PSpice\Project\9.3\jj-PSpiceFiles\SCHEMATIC1\1.sim ] 


 ****     SMALL SIGNAL BIAS SOLUTION       TEMPERATURE =   27.000 DEG C

                      MONTE CARLO PASS 10

******************************************************************************



 NODE   VOLTAGE     NODE   VOLTAGE     NODE   VOLTAGE     NODE   VOLTAGE


(  OUT)     .0115  (  VCC)   12.0000  (  VEE)  -11.0000  (N00296) 37.60E-06     

(N00323)    0.0000 (N00378)    0.0000 (X_U1.6) 46.04E-06 (X_U1.7)     .0115     

(X_U1.8)     .0115 (X_U1.9)    0.0000 (X_U1.10)    -.6076                       

(X_U1.11)   11.9600                   (X_U1.12)   11.9600                       

(X_U1.13)    -.5937                   (X_U1.14)    -.5937                       

(X_U1.53)   11.0000                   (X_U1.54)  -10.0000                       

(X_U1.90) 79.58E-06                   (X_U1.91)   40.0000                       

(X_U1.92)  -40.0000                   (X_U1.99)     .5000                   




    VOLTAGE SOURCE CURRENTS
    NAME         CURRENT

    V_V1         0.000E+00
    V_V2        -1.281E-03
    V_V3         1.282E-03
    X_U1.vb      4.604E-10
    X_U1.vc      1.099E-11
    X_U1.ve      1.138E-11
    X_U1.vlim    7.958E-08
    X_U1.vlp    -4.000E-11
    X_U1.vln    -4.000E-11

    TOTAL POWER DISSIPATION   2.95E-02  WATTS


**** 11/09/21 18:28:53 ******* PSpice Lite (March 2016) ******* ID# 10813 ****

 ** Profile: "SCHEMATIC1-1"  [ D:\Software\Capture_PSpice\Project\9.3\jj-PSpiceFiles\SCHEMATIC1\1.sim ] 


 ****     SMALL SIGNAL BIAS SOLUTION       TEMPERATURE =   27.000 DEG C

                      MONTE CARLO PASS 11

******************************************************************************



 NODE   VOLTAGE     NODE   VOLTAGE     NODE   VOLTAGE     NODE   VOLTAGE


(  OUT)     .0117  (  VCC)   12.0000  (  VEE)  -11.0000  (N00296) 37.60E-06     

(N00323)    0.0000 (N00378)    0.0000 (X_U1.6) 46.02E-06 (X_U1.7)     .0117     

(X_U1.8)     .0117 (X_U1.9)    0.0000 (X_U1.10)    -.6076                       

(X_U1.11)   11.9600                   (X_U1.12)   11.9600                       

(X_U1.13)    -.5937                   (X_U1.14)    -.5937                       

(X_U1.53)   11.0000                   (X_U1.54)  -10.0000                       

(X_U1.90) 79.58E-06                   (X_U1.91)   40.0000                       

(X_U1.92)  -40.0000                   (X_U1.99)     .5000                   




    VOLTAGE SOURCE CURRENTS
    NAME         CURRENT

    V_V1         0.000E+00
    V_V2        -1.281E-03
    V_V3         1.282E-03
    X_U1.vb      4.602E-10
    X_U1.vc      1.099E-11
    X_U1.ve      1.138E-11
    X_U1.vlim    7.958E-08
    X_U1.vlp    -4.000E-11
    X_U1.vln    -4.000E-11

    TOTAL POWER DISSIPATION   2.95E-02  WATTS


**** 11/09/21 18:28:53 ******* PSpice Lite (March 2016) ******* ID# 10813 ****

 ** Profile: "SCHEMATIC1-1"  [ D:\Software\Capture_PSpice\Project\9.3\jj-PSpiceFiles\SCHEMATIC1\1.sim ] 


 ****     SMALL SIGNAL BIAS SOLUTION       TEMPERATURE =   27.000 DEG C

                      MONTE CARLO PASS 12

******************************************************************************



 NODE   VOLTAGE     NODE   VOLTAGE     NODE   VOLTAGE     NODE   VOLTAGE


(  OUT)     .0126  (  VCC)   12.0000  (  VEE)  -11.0000  (N00296) 37.59E-06     

(N00323)    0.0000 (N00378)    0.0000 (X_U1.6) 45.94E-06 (X_U1.7)     .0126     

(X_U1.8)     .0126 (X_U1.9)    0.0000 (X_U1.10)    -.6076                       

(X_U1.11)   11.9600                   (X_U1.12)   11.9600                       

(X_U1.13)    -.5937                   (X_U1.14)    -.5937                       

(X_U1.53)   11.0000                   (X_U1.54)  -10.0000                       

(X_U1.90) 79.58E-06                   (X_U1.91)   40.0000                       

(X_U1.92)  -40.0000                   (X_U1.99)     .5000                   




    VOLTAGE SOURCE CURRENTS
    NAME         CURRENT

    V_V1         0.000E+00
    V_V2        -1.281E-03
    V_V3         1.282E-03
    X_U1.vb      4.594E-10
    X_U1.vc      1.099E-11
    X_U1.ve      1.138E-11
    X_U1.vlim    7.958E-08
    X_U1.vlp    -4.000E-11
    X_U1.vln    -4.000E-11

    TOTAL POWER DISSIPATION   2.95E-02  WATTS


**** 11/09/21 18:28:53 ******* PSpice Lite (March 2016) ******* ID# 10813 ****

 ** Profile: "SCHEMATIC1-1"  [ D:\Software\Capture_PSpice\Project\9.3\jj-PSpiceFiles\SCHEMATIC1\1.sim ] 


 ****     SMALL SIGNAL BIAS SOLUTION       TEMPERATURE =   27.000 DEG C

                      MONTE CARLO PASS 13

******************************************************************************



 NODE   VOLTAGE     NODE   VOLTAGE     NODE   VOLTAGE     NODE   VOLTAGE


(  OUT)     .0122  (  VCC)   12.0000  (  VEE)  -11.0000  (N00296) 37.59E-06     

(N00323)    0.0000 (N00378)    0.0000 (X_U1.6) 45.98E-06 (X_U1.7)     .0122     

(X_U1.8)     .0122 (X_U1.9)    0.0000 (X_U1.10)    -.6076                       

(X_U1.11)   11.9600                   (X_U1.12)   11.9600                       

(X_U1.13)    -.5937                   (X_U1.14)    -.5937                       

(X_U1.53)   11.0000                   (X_U1.54)  -10.0000                       

(X_U1.90) 79.58E-06                   (X_U1.91)   40.0000                       

(X_U1.92)  -40.0000                   (X_U1.99)     .5000                   




    VOLTAGE SOURCE CURRENTS
    NAME         CURRENT

    V_V1         0.000E+00
    V_V2        -1.281E-03
    V_V3         1.282E-03
    X_U1.vb      4.598E-10
    X_U1.vc      1.099E-11
    X_U1.ve      1.138E-11
    X_U1.vlim    7.958E-08
    X_U1.vlp    -4.000E-11
    X_U1.vln    -4.000E-11

    TOTAL POWER DISSIPATION   2.95E-02  WATTS


**** 11/09/21 18:28:53 ******* PSpice Lite (March 2016) ******* ID# 10813 ****

 ** Profile: "SCHEMATIC1-1"  [ D:\Software\Capture_PSpice\Project\9.3\jj-PSpiceFiles\SCHEMATIC1\1.sim ] 


 ****     SMALL SIGNAL BIAS SOLUTION       TEMPERATURE =   27.000 DEG C

                      MONTE CARLO PASS 14

******************************************************************************



 NODE   VOLTAGE     NODE   VOLTAGE     NODE   VOLTAGE     NODE   VOLTAGE


(  OUT)     .0117  (  VCC)   12.0000  (  VEE)  -11.0000  (N00296) 37.60E-06     

(N00323)    0.0000 (N00378)    0.0000 (X_U1.6) 46.02E-06 (X_U1.7)     .0117     

(X_U1.8)     .0117 (X_U1.9)    0.0000 (X_U1.10)    -.6076                       

(X_U1.11)   11.9600                   (X_U1.12)   11.9600                       

(X_U1.13)    -.5937                   (X_U1.14)    -.5937                       

(X_U1.53)   11.0000                   (X_U1.54)  -10.0000                       

(X_U1.90) 79.58E-06                   (X_U1.91)   40.0000                       

(X_U1.92)  -40.0000                   (X_U1.99)     .5000                   




    VOLTAGE SOURCE CURRENTS
    NAME         CURRENT

    V_V1         0.000E+00
    V_V2        -1.281E-03
    V_V3         1.282E-03
    X_U1.vb      4.602E-10
    X_U1.vc      1.099E-11
    X_U1.ve      1.138E-11
    X_U1.vlim    7.958E-08
    X_U1.vlp    -4.000E-11
    X_U1.vln    -4.000E-11

    TOTAL POWER DISSIPATION   2.95E-02  WATTS


**** 11/09/21 18:28:53 ******* PSpice Lite (March 2016) ******* ID# 10813 ****

 ** Profile: "SCHEMATIC1-1"  [ D:\Software\Capture_PSpice\Project\9.3\jj-PSpiceFiles\SCHEMATIC1\1.sim ] 


 ****     SMALL SIGNAL BIAS SOLUTION       TEMPERATURE =   27.000 DEG C

                      MONTE CARLO PASS 15

******************************************************************************



 NODE   VOLTAGE     NODE   VOLTAGE     NODE   VOLTAGE     NODE   VOLTAGE


(  OUT)     .0113  (  VCC)   12.0000  (  VEE)  -11.0000  (N00296) 37.60E-06     

(N00323)    0.0000 (N00378)    0.0000 (X_U1.6) 46.06E-06 (X_U1.7)     .0113     

(X_U1.8)     .0113 (X_U1.9)    0.0000 (X_U1.10)    -.6076                       

(X_U1.11)   11.9600                   (X_U1.12)   11.9600                       

(X_U1.13)    -.5937                   (X_U1.14)    -.5937                       

(X_U1.53)   11.0000                   (X_U1.54)  -10.0000                       

(X_U1.90) 79.58E-06                   (X_U1.91)   40.0000                       

(X_U1.92)  -40.0000                   (X_U1.99)     .5000                   




    VOLTAGE SOURCE CURRENTS
    NAME         CURRENT

    V_V1         0.000E+00
    V_V2        -1.281E-03
    V_V3         1.282E-03
    X_U1.vb      4.606E-10
    X_U1.vc      1.099E-11
    X_U1.ve      1.138E-11
    X_U1.vlim    7.958E-08
    X_U1.vlp    -4.000E-11
    X_U1.vln    -4.000E-11

    TOTAL POWER DISSIPATION   2.95E-02  WATTS


**** 11/09/21 18:28:53 ******* PSpice Lite (March 2016) ******* ID# 10813 ****

 ** Profile: "SCHEMATIC1-1"  [ D:\Software\Capture_PSpice\Project\9.3\jj-PSpiceFiles\SCHEMATIC1\1.sim ] 


 ****     SMALL SIGNAL BIAS SOLUTION       TEMPERATURE =   27.000 DEG C

                      MONTE CARLO PASS 16

******************************************************************************



 NODE   VOLTAGE     NODE   VOLTAGE     NODE   VOLTAGE     NODE   VOLTAGE


(  OUT)     .0108  (  VCC)   12.0000  (  VEE)  -11.0000  (N00296) 37.60E-06     

(N00323)    0.0000 (N00378)    0.0000 (X_U1.6) 46.11E-06 (X_U1.7)     .0108     

(X_U1.8)     .0108 (X_U1.9)    0.0000 (X_U1.10)    -.6076                       

(X_U1.11)   11.9600                   (X_U1.12)   11.9600                       

(X_U1.13)    -.5937                   (X_U1.14)    -.5937                       

(X_U1.53)   11.0000                   (X_U1.54)  -10.0000                       

(X_U1.90) 79.58E-06                   (X_U1.91)   40.0000                       

(X_U1.92)  -40.0000                   (X_U1.99)     .5000                   




    VOLTAGE SOURCE CURRENTS
    NAME         CURRENT

    V_V1         0.000E+00
    V_V2        -1.281E-03
    V_V3         1.282E-03
    X_U1.vb      4.611E-10
    X_U1.vc      1.099E-11
    X_U1.ve      1.138E-11
    X_U1.vlim    7.958E-08
    X_U1.vlp    -4.000E-11
    X_U1.vln    -4.000E-11

    TOTAL POWER DISSIPATION   2.95E-02  WATTS


**** 11/09/21 18:28:53 ******* PSpice Lite (March 2016) ******* ID# 10813 ****

 ** Profile: "SCHEMATIC1-1"  [ D:\Software\Capture_PSpice\Project\9.3\jj-PSpiceFiles\SCHEMATIC1\1.sim ] 


 ****     SMALL SIGNAL BIAS SOLUTION       TEMPERATURE =   27.000 DEG C

                      MONTE CARLO PASS 17

******************************************************************************



 NODE   VOLTAGE     NODE   VOLTAGE     NODE   VOLTAGE     NODE   VOLTAGE


(  OUT)     .0128  (  VCC)   12.0000  (  VEE)  -11.0000  (N00296) 37.59E-06     

(N00323)    0.0000 (N00378)    0.0000 (X_U1.6) 45.92E-06 (X_U1.7)     .0128     

(X_U1.8)     .0128 (X_U1.9)    0.0000 (X_U1.10)    -.6076                       

(X_U1.11)   11.9600                   (X_U1.12)   11.9600                       

(X_U1.13)    -.5937                   (X_U1.14)    -.5937                       

(X_U1.53)   11.0000                   (X_U1.54)  -10.0000                       

(X_U1.90) 79.58E-06                   (X_U1.91)   40.0000                       

(X_U1.92)  -40.0000                   (X_U1.99)     .5000                   




    VOLTAGE SOURCE CURRENTS
    NAME         CURRENT

    V_V1         0.000E+00
    V_V2        -1.281E-03
    V_V3         1.282E-03
    X_U1.vb      4.592E-10
    X_U1.vc      1.099E-11
    X_U1.ve      1.138E-11
    X_U1.vlim    7.958E-08
    X_U1.vlp    -4.000E-11
    X_U1.vln    -4.000E-11

    TOTAL POWER DISSIPATION   2.95E-02  WATTS


**** 11/09/21 18:28:53 ******* PSpice Lite (March 2016) ******* ID# 10813 ****

 ** Profile: "SCHEMATIC1-1"  [ D:\Software\Capture_PSpice\Project\9.3\jj-PSpiceFiles\SCHEMATIC1\1.sim ] 


 ****     SMALL SIGNAL BIAS SOLUTION       TEMPERATURE =   27.000 DEG C

                      MONTE CARLO PASS 18

******************************************************************************



 NODE   VOLTAGE     NODE   VOLTAGE     NODE   VOLTAGE     NODE   VOLTAGE


(  OUT)     .0129  (  VCC)   12.0000  (  VEE)  -11.0000  (N00296) 37.59E-06     

(N00323)    0.0000 (N00378)    0.0000 (X_U1.6) 45.90E-06 (X_U1.7)     .0129     

(X_U1.8)     .0129 (X_U1.9)    0.0000 (X_U1.10)    -.6076                       

(X_U1.11)   11.9600                   (X_U1.12)   11.9600                       

(X_U1.13)    -.5937                   (X_U1.14)    -.5937                       

(X_U1.53)   11.0000                   (X_U1.54)  -10.0000                       

(X_U1.90) 79.58E-06                   (X_U1.91)   40.0000                       

(X_U1.92)  -40.0000                   (X_U1.99)     .5000                   




    VOLTAGE SOURCE CURRENTS
    NAME         CURRENT

    V_V1         0.000E+00
    V_V2        -1.281E-03
    V_V3         1.282E-03
    X_U1.vb      4.590E-10
    X_U1.vc      1.099E-11
    X_U1.ve      1.138E-11
    X_U1.vlim    7.958E-08
    X_U1.vlp    -4.000E-11
    X_U1.vln    -4.000E-11

    TOTAL POWER DISSIPATION   2.95E-02  WATTS


**** 11/09/21 18:28:53 ******* PSpice Lite (March 2016) ******* ID# 10813 ****

 ** Profile: "SCHEMATIC1-1"  [ D:\Software\Capture_PSpice\Project\9.3\jj-PSpiceFiles\SCHEMATIC1\1.sim ] 


 ****     SMALL SIGNAL BIAS SOLUTION       TEMPERATURE =   27.000 DEG C

                      MONTE CARLO PASS 19

******************************************************************************



 NODE   VOLTAGE     NODE   VOLTAGE     NODE   VOLTAGE     NODE   VOLTAGE


(  OUT)     .0122  (  VCC)   12.0000  (  VEE)  -11.0000  (N00296) 37.59E-06     

(N00323)    0.0000 (N00378)    0.0000 (X_U1.6) 45.97E-06 (X_U1.7)     .0122     

(X_U1.8)     .0122 (X_U1.9)    0.0000 (X_U1.10)    -.6076                       

(X_U1.11)   11.9600                   (X_U1.12)   11.9600                       

(X_U1.13)    -.5937                   (X_U1.14)    -.5937                       

(X_U1.53)   11.0000                   (X_U1.54)  -10.0000                       

(X_U1.90) 79.58E-06                   (X_U1.91)   40.0000                       

(X_U1.92)  -40.0000                   (X_U1.99)     .5000                   




    VOLTAGE SOURCE CURRENTS
    NAME         CURRENT

    V_V1         0.000E+00
    V_V2        -1.281E-03
    V_V3         1.282E-03
    X_U1.vb      4.597E-10
    X_U1.vc      1.099E-11
    X_U1.ve      1.138E-11
    X_U1.vlim    7.958E-08
    X_U1.vlp    -4.000E-11
    X_U1.vln    -4.000E-11

    TOTAL POWER DISSIPATION   2.95E-02  WATTS


**** 11/09/21 18:28:53 ******* PSpice Lite (March 2016) ******* ID# 10813 ****

 ** Profile: "SCHEMATIC1-1"  [ D:\Software\Capture_PSpice\Project\9.3\jj-PSpiceFiles\SCHEMATIC1\1.sim ] 


 ****     SMALL SIGNAL BIAS SOLUTION       TEMPERATURE =   27.000 DEG C

                      MONTE CARLO PASS 20

******************************************************************************



 NODE   VOLTAGE     NODE   VOLTAGE     NODE   VOLTAGE     NODE   VOLTAGE


(  OUT)     .0117  (  VCC)   12.0000  (  VEE)  -11.0000  (N00296) 37.60E-06     

(N00323)    0.0000 (N00378)    0.0000 (X_U1.6) 46.02E-06 (X_U1.7)     .0117     

(X_U1.8)     .0117 (X_U1.9)    0.0000 (X_U1.10)    -.6076                       

(X_U1.11)   11.9600                   (X_U1.12)   11.9600                       

(X_U1.13)    -.5937                   (X_U1.14)    -.5937                       

(X_U1.53)   11.0000                   (X_U1.54)  -10.0000                       

(X_U1.90) 79.58E-06                   (X_U1.91)   40.0000                       

(X_U1.92)  -40.0000                   (X_U1.99)     .5000                   




    VOLTAGE SOURCE CURRENTS
    NAME         CURRENT

    V_V1         0.000E+00
    V_V2        -1.281E-03
    V_V3         1.282E-03
    X_U1.vb      4.602E-10
    X_U1.vc      1.099E-11
    X_U1.ve      1.138E-11
    X_U1.vlim    7.958E-08
    X_U1.vlp    -4.000E-11
    X_U1.vln    -4.000E-11

    TOTAL POWER DISSIPATION   2.95E-02  WATTS


**** 11/09/21 18:28:53 ******* PSpice Lite (March 2016) ******* ID# 10813 ****

 ** Profile: "SCHEMATIC1-1"  [ D:\Software\Capture_PSpice\Project\9.3\jj-PSpiceFiles\SCHEMATIC1\1.sim ] 


 ****     SMALL SIGNAL BIAS SOLUTION       TEMPERATURE =   27.000 DEG C

                      MONTE CARLO PASS 21

******************************************************************************



 NODE   VOLTAGE     NODE   VOLTAGE     NODE   VOLTAGE     NODE   VOLTAGE


(  OUT)     .0122  (  VCC)   12.0000  (  VEE)  -11.0000  (N00296) 37.59E-06     

(N00323)    0.0000 (N00378)    0.0000 (X_U1.6) 45.97E-06 (X_U1.7)     .0122     

(X_U1.8)     .0122 (X_U1.9)    0.0000 (X_U1.10)    -.6076                       

(X_U1.11)   11.9600                   (X_U1.12)   11.9600                       

(X_U1.13)    -.5937                   (X_U1.14)    -.5937                       

(X_U1.53)   11.0000                   (X_U1.54)  -10.0000                       

(X_U1.90) 79.58E-06                   (X_U1.91)   40.0000                       

(X_U1.92)  -40.0000                   (X_U1.99)     .5000                   




    VOLTAGE SOURCE CURRENTS
    NAME         CURRENT

    V_V1         0.000E+00
    V_V2        -1.281E-03
    V_V3         1.282E-03
    X_U1.vb      4.597E-10
    X_U1.vc      1.099E-11
    X_U1.ve      1.138E-11
    X_U1.vlim    7.958E-08
    X_U1.vlp    -4.000E-11
    X_U1.vln    -4.000E-11

    TOTAL POWER DISSIPATION   2.95E-02  WATTS


**** 11/09/21 18:28:53 ******* PSpice Lite (March 2016) ******* ID# 10813 ****

 ** Profile: "SCHEMATIC1-1"  [ D:\Software\Capture_PSpice\Project\9.3\jj-PSpiceFiles\SCHEMATIC1\1.sim ] 


 ****     SMALL SIGNAL BIAS SOLUTION       TEMPERATURE =   27.000 DEG C

                      MONTE CARLO PASS 22

******************************************************************************



 NODE   VOLTAGE     NODE   VOLTAGE     NODE   VOLTAGE     NODE   VOLTAGE


(  OUT)     .0118  (  VCC)   12.0000  (  VEE)  -11.0000  (N00296) 37.60E-06     

(N00323)    0.0000 (N00378)    0.0000 (X_U1.6) 46.01E-06 (X_U1.7)     .0118     

(X_U1.8)     .0118 (X_U1.9)    0.0000 (X_U1.10)    -.6076                       

(X_U1.11)   11.9600                   (X_U1.12)   11.9600                       

(X_U1.13)    -.5937                   (X_U1.14)    -.5937                       

(X_U1.53)   11.0000                   (X_U1.54)  -10.0000                       

(X_U1.90) 79.58E-06                   (X_U1.91)   40.0000                       

(X_U1.92)  -40.0000                   (X_U1.99)     .5000                   




    VOLTAGE SOURCE CURRENTS
    NAME         CURRENT

    V_V1         0.000E+00
    V_V2        -1.281E-03
    V_V3         1.282E-03
    X_U1.vb      4.601E-10
    X_U1.vc      1.099E-11
    X_U1.ve      1.138E-11
    X_U1.vlim    7.958E-08
    X_U1.vlp    -4.000E-11
    X_U1.vln    -4.000E-11

    TOTAL POWER DISSIPATION   2.95E-02  WATTS


**** 11/09/21 18:28:53 ******* PSpice Lite (March 2016) ******* ID# 10813 ****

 ** Profile: "SCHEMATIC1-1"  [ D:\Software\Capture_PSpice\Project\9.3\jj-PSpiceFiles\SCHEMATIC1\1.sim ] 


 ****     SMALL SIGNAL BIAS SOLUTION       TEMPERATURE =   27.000 DEG C

                      MONTE CARLO PASS 23

******************************************************************************



 NODE   VOLTAGE     NODE   VOLTAGE     NODE   VOLTAGE     NODE   VOLTAGE


(  OUT)     .0130  (  VCC)   12.0000  (  VEE)  -11.0000  (N00296) 37.59E-06     

(N00323)    0.0000 (N00378)    0.0000 (X_U1.6) 45.90E-06 (X_U1.7)     .0130     

(X_U1.8)     .0130 (X_U1.9)    0.0000 (X_U1.10)    -.6076                       

(X_U1.11)   11.9600                   (X_U1.12)   11.9600                       

(X_U1.13)    -.5937                   (X_U1.14)    -.5937                       

(X_U1.53)   11.0000                   (X_U1.54)  -10.0000                       

(X_U1.90) 79.58E-06                   (X_U1.91)   40.0000                       

(X_U1.92)  -40.0000                   (X_U1.99)     .5000                   




    VOLTAGE SOURCE CURRENTS
    NAME         CURRENT

    V_V1         0.000E+00
    V_V2        -1.281E-03
    V_V3         1.282E-03
    X_U1.vb      4.590E-10
    X_U1.vc      1.099E-11
    X_U1.ve      1.138E-11
    X_U1.vlim    7.958E-08
    X_U1.vlp    -4.000E-11
    X_U1.vln    -4.000E-11

    TOTAL POWER DISSIPATION   2.95E-02  WATTS


**** 11/09/21 18:28:53 ******* PSpice Lite (March 2016) ******* ID# 10813 ****

 ** Profile: "SCHEMATIC1-1"  [ D:\Software\Capture_PSpice\Project\9.3\jj-PSpiceFiles\SCHEMATIC1\1.sim ] 


 ****     SMALL SIGNAL BIAS SOLUTION       TEMPERATURE =   27.000 DEG C

                      MONTE CARLO PASS 24

******************************************************************************



 NODE   VOLTAGE     NODE   VOLTAGE     NODE   VOLTAGE     NODE   VOLTAGE


(  OUT)     .0130  (  VCC)   12.0000  (  VEE)  -11.0000  (N00296) 37.59E-06     

(N00323)    0.0000 (N00378)    0.0000 (X_U1.6) 45.90E-06 (X_U1.7)     .0130     

(X_U1.8)     .0130 (X_U1.9)    0.0000 (X_U1.10)    -.6076                       

(X_U1.11)   11.9600                   (X_U1.12)   11.9600                       

(X_U1.13)    -.5937                   (X_U1.14)    -.5937                       

(X_U1.53)   11.0000                   (X_U1.54)  -10.0000                       

(X_U1.90) 79.58E-06                   (X_U1.91)   40.0000                       

(X_U1.92)  -40.0000                   (X_U1.99)     .5000                   




    VOLTAGE SOURCE CURRENTS
    NAME         CURRENT

    V_V1         0.000E+00
    V_V2        -1.281E-03
    V_V3         1.282E-03
    X_U1.vb      4.590E-10
    X_U1.vc      1.099E-11
    X_U1.ve      1.138E-11
    X_U1.vlim    7.958E-08
    X_U1.vlp    -4.000E-11
    X_U1.vln    -4.000E-11

    TOTAL POWER DISSIPATION   2.95E-02  WATTS


**** 11/09/21 18:28:53 ******* PSpice Lite (March 2016) ******* ID# 10813 ****

 ** Profile: "SCHEMATIC1-1"  [ D:\Software\Capture_PSpice\Project\9.3\jj-PSpiceFiles\SCHEMATIC1\1.sim ] 


 ****     SMALL SIGNAL BIAS SOLUTION       TEMPERATURE =   27.000 DEG C

                      MONTE CARLO PASS 25

******************************************************************************



 NODE   VOLTAGE     NODE   VOLTAGE     NODE   VOLTAGE     NODE   VOLTAGE


(  OUT)     .0128  (  VCC)   12.0000  (  VEE)  -11.0000  (N00296) 37.59E-06     

(N00323)    0.0000 (N00378)    0.0000 (X_U1.6) 45.92E-06 (X_U1.7)     .0128     

(X_U1.8)     .0128 (X_U1.9)    0.0000 (X_U1.10)    -.6076                       

(X_U1.11)   11.9600                   (X_U1.12)   11.9600                       

(X_U1.13)    -.5937                   (X_U1.14)    -.5937                       

(X_U1.53)   11.0000                   (X_U1.54)  -10.0000                       

(X_U1.90) 79.58E-06                   (X_U1.91)   40.0000                       

(X_U1.92)  -40.0000                   (X_U1.99)     .5000                   




    VOLTAGE SOURCE CURRENTS
    NAME         CURRENT

    V_V1         0.000E+00
    V_V2        -1.281E-03
    V_V3         1.282E-03
    X_U1.vb      4.592E-10
    X_U1.vc      1.099E-11
    X_U1.ve      1.138E-11
    X_U1.vlim    7.958E-08
    X_U1.vlp    -4.000E-11
    X_U1.vln    -4.000E-11

    TOTAL POWER DISSIPATION   2.95E-02  WATTS


**** 11/09/21 18:28:53 ******* PSpice Lite (March 2016) ******* ID# 10813 ****

 ** Profile: "SCHEMATIC1-1"  [ D:\Software\Capture_PSpice\Project\9.3\jj-PSpiceFiles\SCHEMATIC1\1.sim ] 


 ****     SMALL SIGNAL BIAS SOLUTION       TEMPERATURE =   27.000 DEG C

                      MONTE CARLO PASS 26

******************************************************************************



 NODE   VOLTAGE     NODE   VOLTAGE     NODE   VOLTAGE     NODE   VOLTAGE


(  OUT)     .0127  (  VCC)   12.0000  (  VEE)  -11.0000  (N00296) 37.59E-06     

(N00323)    0.0000 (N00378)    0.0000 (X_U1.6) 45.93E-06 (X_U1.7)     .0127     

(X_U1.8)     .0127 (X_U1.9)    0.0000 (X_U1.10)    -.6076                       

(X_U1.11)   11.9600                   (X_U1.12)   11.9600                       

(X_U1.13)    -.5937                   (X_U1.14)    -.5937                       

(X_U1.53)   11.0000                   (X_U1.54)  -10.0000                       

(X_U1.90) 79.58E-06                   (X_U1.91)   40.0000                       

(X_U1.92)  -40.0000                   (X_U1.99)     .5000                   




    VOLTAGE SOURCE CURRENTS
    NAME         CURRENT

    V_V1         0.000E+00
    V_V2        -1.281E-03
    V_V3         1.282E-03
    X_U1.vb      4.593E-10
    X_U1.vc      1.099E-11
    X_U1.ve      1.138E-11
    X_U1.vlim    7.958E-08
    X_U1.vlp    -4.000E-11
    X_U1.vln    -4.000E-11

    TOTAL POWER DISSIPATION   2.95E-02  WATTS


**** 11/09/21 18:28:53 ******* PSpice Lite (March 2016) ******* ID# 10813 ****

 ** Profile: "SCHEMATIC1-1"  [ D:\Software\Capture_PSpice\Project\9.3\jj-PSpiceFiles\SCHEMATIC1\1.sim ] 


 ****     SMALL SIGNAL BIAS SOLUTION       TEMPERATURE =   27.000 DEG C

                      MONTE CARLO PASS 27

******************************************************************************



 NODE   VOLTAGE     NODE   VOLTAGE     NODE   VOLTAGE     NODE   VOLTAGE


(  OUT)     .0132  (  VCC)   12.0000  (  VEE)  -11.0000  (N00296) 37.59E-06     

(N00323)    0.0000 (N00378)    0.0000 (X_U1.6) 45.88E-06 (X_U1.7)     .0132     

(X_U1.8)     .0132 (X_U1.9)    0.0000 (X_U1.10)    -.6076                       

(X_U1.11)   11.9600                   (X_U1.12)   11.9600                       

(X_U1.13)    -.5937                   (X_U1.14)    -.5937                       

(X_U1.53)   11.0000                   (X_U1.54)  -10.0000                       

(X_U1.90) 79.58E-06                   (X_U1.91)   40.0000                       

(X_U1.92)  -40.0000                   (X_U1.99)     .5000                   




    VOLTAGE SOURCE CURRENTS
    NAME         CURRENT

    V_V1         0.000E+00
    V_V2        -1.281E-03
    V_V3         1.282E-03
    X_U1.vb      4.588E-10
    X_U1.vc      1.099E-11
    X_U1.ve      1.138E-11
    X_U1.vlim    7.958E-08
    X_U1.vlp    -4.000E-11
    X_U1.vln    -4.000E-11

    TOTAL POWER DISSIPATION   2.95E-02  WATTS


**** 11/09/21 18:28:53 ******* PSpice Lite (March 2016) ******* ID# 10813 ****

 ** Profile: "SCHEMATIC1-1"  [ D:\Software\Capture_PSpice\Project\9.3\jj-PSpiceFiles\SCHEMATIC1\1.sim ] 


 ****     SMALL SIGNAL BIAS SOLUTION       TEMPERATURE =   27.000 DEG C

                      MONTE CARLO PASS 28

******************************************************************************



 NODE   VOLTAGE     NODE   VOLTAGE     NODE   VOLTAGE     NODE   VOLTAGE


(  OUT)     .0119  (  VCC)   12.0000  (  VEE)  -11.0000  (N00296) 37.59E-06     

(N00323)    0.0000 (N00378)    0.0000 (X_U1.6) 46.01E-06 (X_U1.7)     .0119     

(X_U1.8)     .0119 (X_U1.9)    0.0000 (X_U1.10)    -.6076                       

(X_U1.11)   11.9600                   (X_U1.12)   11.9600                       

(X_U1.13)    -.5937                   (X_U1.14)    -.5937                       

(X_U1.53)   11.0000                   (X_U1.54)  -10.0000                       

(X_U1.90) 79.58E-06                   (X_U1.91)   40.0000                       

(X_U1.92)  -40.0000                   (X_U1.99)     .5000                   




    VOLTAGE SOURCE CURRENTS
    NAME         CURRENT

    V_V1         0.000E+00
    V_V2        -1.281E-03
    V_V3         1.282E-03
    X_U1.vb      4.601E-10
    X_U1.vc      1.099E-11
    X_U1.ve      1.138E-11
    X_U1.vlim    7.958E-08
    X_U1.vlp    -4.000E-11
    X_U1.vln    -4.000E-11

    TOTAL POWER DISSIPATION   2.95E-02  WATTS


**** 11/09/21 18:28:53 ******* PSpice Lite (March 2016) ******* ID# 10813 ****

 ** Profile: "SCHEMATIC1-1"  [ D:\Software\Capture_PSpice\Project\9.3\jj-PSpiceFiles\SCHEMATIC1\1.sim ] 


 ****     SMALL SIGNAL BIAS SOLUTION       TEMPERATURE =   27.000 DEG C

                      MONTE CARLO PASS 29

******************************************************************************



 NODE   VOLTAGE     NODE   VOLTAGE     NODE   VOLTAGE     NODE   VOLTAGE


(  OUT)     .0116  (  VCC)   12.0000  (  VEE)  -11.0000  (N00296) 37.60E-06     

(N00323)    0.0000 (N00378)    0.0000 (X_U1.6) 46.03E-06 (X_U1.7)     .0116     

(X_U1.8)     .0116 (X_U1.9)    0.0000 (X_U1.10)    -.6076                       

(X_U1.11)   11.9600                   (X_U1.12)   11.9600                       

(X_U1.13)    -.5937                   (X_U1.14)    -.5937                       

(X_U1.53)   11.0000                   (X_U1.54)  -10.0000                       

(X_U1.90) 79.58E-06                   (X_U1.91)   40.0000                       

(X_U1.92)  -40.0000                   (X_U1.99)     .5000                   




    VOLTAGE SOURCE CURRENTS
    NAME         CURRENT

    V_V1         0.000E+00
    V_V2        -1.281E-03
    V_V3         1.282E-03
    X_U1.vb      4.603E-10
    X_U1.vc      1.099E-11
    X_U1.ve      1.138E-11
    X_U1.vlim    7.958E-08
    X_U1.vlp    -4.000E-11
    X_U1.vln    -4.000E-11

    TOTAL POWER DISSIPATION   2.95E-02  WATTS


**** 11/09/21 18:28:53 ******* PSpice Lite (March 2016) ******* ID# 10813 ****

 ** Profile: "SCHEMATIC1-1"  [ D:\Software\Capture_PSpice\Project\9.3\jj-PSpiceFiles\SCHEMATIC1\1.sim ] 


 ****     SMALL SIGNAL BIAS SOLUTION       TEMPERATURE =   27.000 DEG C

                      MONTE CARLO PASS 30

******************************************************************************



 NODE   VOLTAGE     NODE   VOLTAGE     NODE   VOLTAGE     NODE   VOLTAGE


(  OUT)     .0118  (  VCC)   12.0000  (  VEE)  -11.0000  (N00296) 37.60E-06     

(N00323)    0.0000 (N00378)    0.0000 (X_U1.6) 46.02E-06 (X_U1.7)     .0118     

(X_U1.8)     .0118 (X_U1.9)    0.0000 (X_U1.10)    -.6076                       

(X_U1.11)   11.9600                   (X_U1.12)   11.9600                       

(X_U1.13)    -.5937                   (X_U1.14)    -.5937                       

(X_U1.53)   11.0000                   (X_U1.54)  -10.0000                       

(X_U1.90) 79.58E-06                   (X_U1.91)   40.0000                       

(X_U1.92)  -40.0000                   (X_U1.99)     .5000                   




    VOLTAGE SOURCE CURRENTS
    NAME         CURRENT

    V_V1         0.000E+00
    V_V2        -1.281E-03
    V_V3         1.282E-03
    X_U1.vb      4.602E-10
    X_U1.vc      1.099E-11
    X_U1.ve      1.138E-11
    X_U1.vlim    7.958E-08
    X_U1.vlp    -4.000E-11
    X_U1.vln    -4.000E-11

    TOTAL POWER DISSIPATION   2.95E-02  WATTS


**** 11/09/21 18:28:53 ******* PSpice Lite (March 2016) ******* ID# 10813 ****

 ** Profile: "SCHEMATIC1-1"  [ D:\Software\Capture_PSpice\Project\9.3\jj-PSpiceFiles\SCHEMATIC1\1.sim ] 


 ****     SMALL SIGNAL BIAS SOLUTION       TEMPERATURE =   27.000 DEG C

                      MONTE CARLO PASS 31

******************************************************************************



 NODE   VOLTAGE     NODE   VOLTAGE     NODE   VOLTAGE     NODE   VOLTAGE


(  OUT)     .0126  (  VCC)   12.0000  (  VEE)  -11.0000  (N00296) 37.59E-06     

(N00323)    0.0000 (N00378)    0.0000 (X_U1.6) 45.94E-06 (X_U1.7)     .0126     

(X_U1.8)     .0126 (X_U1.9)    0.0000 (X_U1.10)    -.6076                       

(X_U1.11)   11.9600                   (X_U1.12)   11.9600                       

(X_U1.13)    -.5937                   (X_U1.14)    -.5937                       

(X_U1.53)   11.0000                   (X_U1.54)  -10.0000                       

(X_U1.90) 79.58E-06                   (X_U1.91)   40.0000                       

(X_U1.92)  -40.0000                   (X_U1.99)     .5000                   




    VOLTAGE SOURCE CURRENTS
    NAME         CURRENT

    V_V1         0.000E+00
    V_V2        -1.281E-03
    V_V3         1.282E-03
    X_U1.vb      4.594E-10
    X_U1.vc      1.099E-11
    X_U1.ve      1.138E-11
    X_U1.vlim    7.958E-08
    X_U1.vlp    -4.000E-11
    X_U1.vln    -4.000E-11

    TOTAL POWER DISSIPATION   2.95E-02  WATTS


**** 11/09/21 18:28:53 ******* PSpice Lite (March 2016) ******* ID# 10813 ****

 ** Profile: "SCHEMATIC1-1"  [ D:\Software\Capture_PSpice\Project\9.3\jj-PSpiceFiles\SCHEMATIC1\1.sim ] 


 ****     SMALL SIGNAL BIAS SOLUTION       TEMPERATURE =   27.000 DEG C

                      MONTE CARLO PASS 32

******************************************************************************



 NODE   VOLTAGE     NODE   VOLTAGE     NODE   VOLTAGE     NODE   VOLTAGE


(  OUT)     .0119  (  VCC)   12.0000  (  VEE)  -11.0000  (N00296) 37.59E-06     

(N00323)    0.0000 (N00378)    0.0000 (X_U1.6) 46.01E-06 (X_U1.7)     .0119     

(X_U1.8)     .0119 (X_U1.9)    0.0000 (X_U1.10)    -.6076                       

(X_U1.11)   11.9600                   (X_U1.12)   11.9600                       

(X_U1.13)    -.5937                   (X_U1.14)    -.5937                       

(X_U1.53)   11.0000                   (X_U1.54)  -10.0000                       

(X_U1.90) 79.58E-06                   (X_U1.91)   40.0000                       

(X_U1.92)  -40.0000                   (X_U1.99)     .5000                   




    VOLTAGE SOURCE CURRENTS
    NAME         CURRENT

    V_V1         0.000E+00
    V_V2        -1.281E-03
    V_V3         1.282E-03
    X_U1.vb      4.601E-10
    X_U1.vc      1.099E-11
    X_U1.ve      1.138E-11
    X_U1.vlim    7.958E-08
    X_U1.vlp    -4.000E-11
    X_U1.vln    -4.000E-11

    TOTAL POWER DISSIPATION   2.95E-02  WATTS


**** 11/09/21 18:28:53 ******* PSpice Lite (March 2016) ******* ID# 10813 ****

 ** Profile: "SCHEMATIC1-1"  [ D:\Software\Capture_PSpice\Project\9.3\jj-PSpiceFiles\SCHEMATIC1\1.sim ] 


 ****     SMALL SIGNAL BIAS SOLUTION       TEMPERATURE =   27.000 DEG C

                      MONTE CARLO PASS 33

******************************************************************************



 NODE   VOLTAGE     NODE   VOLTAGE     NODE   VOLTAGE     NODE   VOLTAGE


(  OUT)     .0129  (  VCC)   12.0000  (  VEE)  -11.0000  (N00296) 37.59E-06     

(N00323)    0.0000 (N00378)    0.0000 (X_U1.6) 45.90E-06 (X_U1.7)     .0129     

(X_U1.8)     .0129 (X_U1.9)    0.0000 (X_U1.10)    -.6076                       

(X_U1.11)   11.9600                   (X_U1.12)   11.9600                       

(X_U1.13)    -.5937                   (X_U1.14)    -.5937                       

(X_U1.53)   11.0000                   (X_U1.54)  -10.0000                       

(X_U1.90) 79.58E-06                   (X_U1.91)   40.0000                       

(X_U1.92)  -40.0000                   (X_U1.99)     .5000                   




    VOLTAGE SOURCE CURRENTS
    NAME         CURRENT

    V_V1         0.000E+00
    V_V2        -1.281E-03
    V_V3         1.282E-03
    X_U1.vb      4.590E-10
    X_U1.vc      1.099E-11
    X_U1.ve      1.138E-11
    X_U1.vlim    7.958E-08
    X_U1.vlp    -4.000E-11
    X_U1.vln    -4.000E-11

    TOTAL POWER DISSIPATION   2.95E-02  WATTS


**** 11/09/21 18:28:53 ******* PSpice Lite (March 2016) ******* ID# 10813 ****

 ** Profile: "SCHEMATIC1-1"  [ D:\Software\Capture_PSpice\Project\9.3\jj-PSpiceFiles\SCHEMATIC1\1.sim ] 


 ****     SMALL SIGNAL BIAS SOLUTION       TEMPERATURE =   27.000 DEG C

                      MONTE CARLO PASS 34

******************************************************************************



 NODE   VOLTAGE     NODE   VOLTAGE     NODE   VOLTAGE     NODE   VOLTAGE


(  OUT)     .0126  (  VCC)   12.0000  (  VEE)  -11.0000  (N00296) 37.59E-06     

(N00323)    0.0000 (N00378)    0.0000 (X_U1.6) 45.94E-06 (X_U1.7)     .0126     

(X_U1.8)     .0126 (X_U1.9)    0.0000 (X_U1.10)    -.6076                       

(X_U1.11)   11.9600                   (X_U1.12)   11.9600                       

(X_U1.13)    -.5937                   (X_U1.14)    -.5937                       

(X_U1.53)   11.0000                   (X_U1.54)  -10.0000                       

(X_U1.90) 79.58E-06                   (X_U1.91)   40.0000                       

(X_U1.92)  -40.0000                   (X_U1.99)     .5000                   




    VOLTAGE SOURCE CURRENTS
    NAME         CURRENT

    V_V1         0.000E+00
    V_V2        -1.281E-03
    V_V3         1.282E-03
    X_U1.vb      4.594E-10
    X_U1.vc      1.099E-11
    X_U1.ve      1.138E-11
    X_U1.vlim    7.958E-08
    X_U1.vlp    -4.000E-11
    X_U1.vln    -4.000E-11

    TOTAL POWER DISSIPATION   2.95E-02  WATTS


**** 11/09/21 18:28:53 ******* PSpice Lite (March 2016) ******* ID# 10813 ****

 ** Profile: "SCHEMATIC1-1"  [ D:\Software\Capture_PSpice\Project\9.3\jj-PSpiceFiles\SCHEMATIC1\1.sim ] 


 ****     SMALL SIGNAL BIAS SOLUTION       TEMPERATURE =   27.000 DEG C

                      MONTE CARLO PASS 35

******************************************************************************



 NODE   VOLTAGE     NODE   VOLTAGE     NODE   VOLTAGE     NODE   VOLTAGE


(  OUT)     .0131  (  VCC)   12.0000  (  VEE)  -11.0000  (N00296) 37.59E-06     

(N00323)    0.0000 (N00378)    0.0000 (X_U1.6) 45.88E-06 (X_U1.7)     .0132     

(X_U1.8)     .0132 (X_U1.9)    0.0000 (X_U1.10)    -.6076                       

(X_U1.11)   11.9600                   (X_U1.12)   11.9600                       

(X_U1.13)    -.5937                   (X_U1.14)    -.5937                       

(X_U1.53)   11.0000                   (X_U1.54)  -10.0000                       

(X_U1.90) 79.58E-06                   (X_U1.91)   40.0000                       

(X_U1.92)  -40.0000                   (X_U1.99)     .5000                   




    VOLTAGE SOURCE CURRENTS
    NAME         CURRENT

    V_V1         0.000E+00
    V_V2        -1.281E-03
    V_V3         1.282E-03
    X_U1.vb      4.588E-10
    X_U1.vc      1.099E-11
    X_U1.ve      1.138E-11
    X_U1.vlim    7.958E-08
    X_U1.vlp    -4.000E-11
    X_U1.vln    -4.000E-11

    TOTAL POWER DISSIPATION   2.95E-02  WATTS


**** 11/09/21 18:28:53 ******* PSpice Lite (March 2016) ******* ID# 10813 ****

 ** Profile: "SCHEMATIC1-1"  [ D:\Software\Capture_PSpice\Project\9.3\jj-PSpiceFiles\SCHEMATIC1\1.sim ] 


 ****     SMALL SIGNAL BIAS SOLUTION       TEMPERATURE =   27.000 DEG C

                      MONTE CARLO PASS 36

******************************************************************************



 NODE   VOLTAGE     NODE   VOLTAGE     NODE   VOLTAGE     NODE   VOLTAGE


(  OUT)     .0113  (  VCC)   12.0000  (  VEE)  -11.0000  (N00296) 37.60E-06     

(N00323)    0.0000 (N00378)    0.0000 (X_U1.6) 46.06E-06 (X_U1.7)     .0113     

(X_U1.8)     .0113 (X_U1.9)    0.0000 (X_U1.10)    -.6076                       

(X_U1.11)   11.9600                   (X_U1.12)   11.9600                       

(X_U1.13)    -.5937                   (X_U1.14)    -.5937                       

(X_U1.53)   11.0000                   (X_U1.54)  -10.0000                       

(X_U1.90) 79.58E-06                   (X_U1.91)   40.0000                       

(X_U1.92)  -40.0000                   (X_U1.99)     .5000                   




    VOLTAGE SOURCE CURRENTS
    NAME         CURRENT

    V_V1         0.000E+00
    V_V2        -1.281E-03
    V_V3         1.282E-03
    X_U1.vb      4.606E-10
    X_U1.vc      1.099E-11
    X_U1.ve      1.138E-11
    X_U1.vlim    7.958E-08
    X_U1.vlp    -4.000E-11
    X_U1.vln    -4.000E-11

    TOTAL POWER DISSIPATION   2.95E-02  WATTS


**** 11/09/21 18:28:53 ******* PSpice Lite (March 2016) ******* ID# 10813 ****

 ** Profile: "SCHEMATIC1-1"  [ D:\Software\Capture_PSpice\Project\9.3\jj-PSpiceFiles\SCHEMATIC1\1.sim ] 


 ****     SMALL SIGNAL BIAS SOLUTION       TEMPERATURE =   27.000 DEG C

                      MONTE CARLO PASS 37

******************************************************************************



 NODE   VOLTAGE     NODE   VOLTAGE     NODE   VOLTAGE     NODE   VOLTAGE


(  OUT)     .0121  (  VCC)   12.0000  (  VEE)  -11.0000  (N00296) 37.59E-06     

(N00323)    0.0000 (N00378)    0.0000 (X_U1.6) 45.98E-06 (X_U1.7)     .0121     

(X_U1.8)     .0121 (X_U1.9)    0.0000 (X_U1.10)    -.6076                       

(X_U1.11)   11.9600                   (X_U1.12)   11.9600                       

(X_U1.13)    -.5937                   (X_U1.14)    -.5937                       

(X_U1.53)   11.0000                   (X_U1.54)  -10.0000                       

(X_U1.90) 79.58E-06                   (X_U1.91)   40.0000                       

(X_U1.92)  -40.0000                   (X_U1.99)     .5000                   




    VOLTAGE SOURCE CURRENTS
    NAME         CURRENT

    V_V1         0.000E+00
    V_V2        -1.281E-03
    V_V3         1.282E-03
    X_U1.vb      4.598E-10
    X_U1.vc      1.099E-11
    X_U1.ve      1.138E-11
    X_U1.vlim    7.958E-08
    X_U1.vlp    -4.000E-11
    X_U1.vln    -4.000E-11

    TOTAL POWER DISSIPATION   2.95E-02  WATTS


**** 11/09/21 18:28:53 ******* PSpice Lite (March 2016) ******* ID# 10813 ****

 ** Profile: "SCHEMATIC1-1"  [ D:\Software\Capture_PSpice\Project\9.3\jj-PSpiceFiles\SCHEMATIC1\1.sim ] 


 ****     SMALL SIGNAL BIAS SOLUTION       TEMPERATURE =   27.000 DEG C

                      MONTE CARLO PASS 38

******************************************************************************



 NODE   VOLTAGE     NODE   VOLTAGE     NODE   VOLTAGE     NODE   VOLTAGE


(  OUT)     .0129  (  VCC)   12.0000  (  VEE)  -11.0000  (N00296) 37.59E-06     

(N00323)    0.0000 (N00378)    0.0000 (X_U1.6) 45.91E-06 (X_U1.7)     .0129     

(X_U1.8)     .0129 (X_U1.9)    0.0000 (X_U1.10)    -.6076                       

(X_U1.11)   11.9600                   (X_U1.12)   11.9600                       

(X_U1.13)    -.5937                   (X_U1.14)    -.5937                       

(X_U1.53)   11.0000                   (X_U1.54)  -10.0000                       

(X_U1.90) 79.58E-06                   (X_U1.91)   40.0000                       

(X_U1.92)  -40.0000                   (X_U1.99)     .5000                   




    VOLTAGE SOURCE CURRENTS
    NAME         CURRENT

    V_V1         0.000E+00
    V_V2        -1.281E-03
    V_V3         1.282E-03
    X_U1.vb      4.591E-10
    X_U1.vc      1.099E-11
    X_U1.ve      1.138E-11
    X_U1.vlim    7.958E-08
    X_U1.vlp    -4.000E-11
    X_U1.vln    -4.000E-11

    TOTAL POWER DISSIPATION   2.95E-02  WATTS


**** 11/09/21 18:28:53 ******* PSpice Lite (March 2016) ******* ID# 10813 ****

 ** Profile: "SCHEMATIC1-1"  [ D:\Software\Capture_PSpice\Project\9.3\jj-PSpiceFiles\SCHEMATIC1\1.sim ] 


 ****     SMALL SIGNAL BIAS SOLUTION       TEMPERATURE =   27.000 DEG C

                      MONTE CARLO PASS 39

******************************************************************************



 NODE   VOLTAGE     NODE   VOLTAGE     NODE   VOLTAGE     NODE   VOLTAGE


(  OUT)     .0124  (  VCC)   12.0000  (  VEE)  -11.0000  (N00296) 37.59E-06     

(N00323)    0.0000 (N00378)    0.0000 (X_U1.6) 45.95E-06 (X_U1.7)     .0124     

(X_U1.8)     .0124 (X_U1.9)    0.0000 (X_U1.10)    -.6076                       

(X_U1.11)   11.9600                   (X_U1.12)   11.9600                       

(X_U1.13)    -.5937                   (X_U1.14)    -.5937                       

(X_U1.53)   11.0000                   (X_U1.54)  -10.0000                       

(X_U1.90) 79.58E-06                   (X_U1.91)   40.0000                       

(X_U1.92)  -40.0000                   (X_U1.99)     .5000                   




    VOLTAGE SOURCE CURRENTS
    NAME         CURRENT

    V_V1         0.000E+00
    V_V2        -1.281E-03
    V_V3         1.282E-03
    X_U1.vb      4.595E-10
    X_U1.vc      1.099E-11
    X_U1.ve      1.138E-11
    X_U1.vlim    7.958E-08
    X_U1.vlp    -4.000E-11
    X_U1.vln    -4.000E-11

    TOTAL POWER DISSIPATION   2.95E-02  WATTS


**** 11/09/21 18:28:53 ******* PSpice Lite (March 2016) ******* ID# 10813 ****

 ** Profile: "SCHEMATIC1-1"  [ D:\Software\Capture_PSpice\Project\9.3\jj-PSpiceFiles\SCHEMATIC1\1.sim ] 


 ****     SMALL SIGNAL BIAS SOLUTION       TEMPERATURE =   27.000 DEG C

                      MONTE CARLO PASS 40

******************************************************************************



 NODE   VOLTAGE     NODE   VOLTAGE     NODE   VOLTAGE     NODE   VOLTAGE


(  OUT)     .0130  (  VCC)   12.0000  (  VEE)  -11.0000  (N00296) 37.59E-06     

(N00323)    0.0000 (N00378)    0.0000 (X_U1.6) 45.90E-06 (X_U1.7)     .0130     

(X_U1.8)     .0130 (X_U1.9)    0.0000 (X_U1.10)    -.6076                       

(X_U1.11)   11.9600                   (X_U1.12)   11.9600                       

(X_U1.13)    -.5937                   (X_U1.14)    -.5937                       

(X_U1.53)   11.0000                   (X_U1.54)  -10.0000                       

(X_U1.90) 79.58E-06                   (X_U1.91)   40.0000                       

(X_U1.92)  -40.0000                   (X_U1.99)     .5000                   




    VOLTAGE SOURCE CURRENTS
    NAME         CURRENT

    V_V1         0.000E+00
    V_V2        -1.281E-03
    V_V3         1.282E-03
    X_U1.vb      4.590E-10
    X_U1.vc      1.099E-11
    X_U1.ve      1.138E-11
    X_U1.vlim    7.958E-08
    X_U1.vlp    -4.000E-11
    X_U1.vln    -4.000E-11

    TOTAL POWER DISSIPATION   2.95E-02  WATTS


**** 11/09/21 18:28:53 ******* PSpice Lite (March 2016) ******* ID# 10813 ****

 ** Profile: "SCHEMATIC1-1"  [ D:\Software\Capture_PSpice\Project\9.3\jj-PSpiceFiles\SCHEMATIC1\1.sim ] 


 ****     SMALL SIGNAL BIAS SOLUTION       TEMPERATURE =   27.000 DEG C

                      MONTE CARLO PASS 41

******************************************************************************



 NODE   VOLTAGE     NODE   VOLTAGE     NODE   VOLTAGE     NODE   VOLTAGE


(  OUT)     .0129  (  VCC)   12.0000  (  VEE)  -11.0000  (N00296) 37.59E-06     

(N00323)    0.0000 (N00378)    0.0000 (X_U1.6) 45.91E-06 (X_U1.7)     .0129     

(X_U1.8)     .0129 (X_U1.9)    0.0000 (X_U1.10)    -.6076                       

(X_U1.11)   11.9600                   (X_U1.12)   11.9600                       

(X_U1.13)    -.5937                   (X_U1.14)    -.5937                       

(X_U1.53)   11.0000                   (X_U1.54)  -10.0000                       

(X_U1.90) 79.58E-06                   (X_U1.91)   40.0000                       

(X_U1.92)  -40.0000                   (X_U1.99)     .5000                   




    VOLTAGE SOURCE CURRENTS
    NAME         CURRENT

    V_V1         0.000E+00
    V_V2        -1.281E-03
    V_V3         1.282E-03
    X_U1.vb      4.591E-10
    X_U1.vc      1.099E-11
    X_U1.ve      1.138E-11
    X_U1.vlim    7.958E-08
    X_U1.vlp    -4.000E-11
    X_U1.vln    -4.000E-11

    TOTAL POWER DISSIPATION   2.95E-02  WATTS


**** 11/09/21 18:28:53 ******* PSpice Lite (March 2016) ******* ID# 10813 ****

 ** Profile: "SCHEMATIC1-1"  [ D:\Software\Capture_PSpice\Project\9.3\jj-PSpiceFiles\SCHEMATIC1\1.sim ] 


 ****     SMALL SIGNAL BIAS SOLUTION       TEMPERATURE =   27.000 DEG C

                      MONTE CARLO PASS 42

******************************************************************************



 NODE   VOLTAGE     NODE   VOLTAGE     NODE   VOLTAGE     NODE   VOLTAGE


(  OUT)     .0119  (  VCC)   12.0000  (  VEE)  -11.0000  (N00296) 37.59E-06     

(N00323)    0.0000 (N00378)    0.0000 (X_U1.6) 46.00E-06 (X_U1.7)     .0119     

(X_U1.8)     .0119 (X_U1.9)    0.0000 (X_U1.10)    -.6076                       

(X_U1.11)   11.9600                   (X_U1.12)   11.9600                       

(X_U1.13)    -.5937                   (X_U1.14)    -.5937                       

(X_U1.53)   11.0000                   (X_U1.54)  -10.0000                       

(X_U1.90) 79.58E-06                   (X_U1.91)   40.0000                       

(X_U1.92)  -40.0000                   (X_U1.99)     .5000                   




    VOLTAGE SOURCE CURRENTS
    NAME         CURRENT

    V_V1         0.000E+00
    V_V2        -1.281E-03
    V_V3         1.282E-03
    X_U1.vb      4.600E-10
    X_U1.vc      1.099E-11
    X_U1.ve      1.138E-11
    X_U1.vlim    7.958E-08
    X_U1.vlp    -4.000E-11
    X_U1.vln    -4.000E-11

    TOTAL POWER DISSIPATION   2.95E-02  WATTS


**** 11/09/21 18:28:53 ******* PSpice Lite (March 2016) ******* ID# 10813 ****

 ** Profile: "SCHEMATIC1-1"  [ D:\Software\Capture_PSpice\Project\9.3\jj-PSpiceFiles\SCHEMATIC1\1.sim ] 


 ****     SMALL SIGNAL BIAS SOLUTION       TEMPERATURE =   27.000 DEG C

                      MONTE CARLO PASS 43

******************************************************************************



 NODE   VOLTAGE     NODE   VOLTAGE     NODE   VOLTAGE     NODE   VOLTAGE


(  OUT)     .0109  (  VCC)   12.0000  (  VEE)  -11.0000  (N00296) 37.60E-06     

(N00323)    0.0000 (N00378)    0.0000 (X_U1.6) 46.09E-06 (X_U1.7)     .0110     

(X_U1.8)     .0110 (X_U1.9)    0.0000 (X_U1.10)    -.6076                       

(X_U1.11)   11.9600                   (X_U1.12)   11.9600                       

(X_U1.13)    -.5937                   (X_U1.14)    -.5937                       

(X_U1.53)   11.0000                   (X_U1.54)  -10.0000                       

(X_U1.90) 79.58E-06                   (X_U1.91)   40.0000                       

(X_U1.92)  -40.0000                   (X_U1.99)     .5000                   




    VOLTAGE SOURCE CURRENTS
    NAME         CURRENT

    V_V1         0.000E+00
    V_V2        -1.281E-03
    V_V3         1.282E-03
    X_U1.vb      4.609E-10
    X_U1.vc      1.099E-11
    X_U1.ve      1.138E-11
    X_U1.vlim    7.958E-08
    X_U1.vlp    -4.000E-11
    X_U1.vln    -4.000E-11

    TOTAL POWER DISSIPATION   2.95E-02  WATTS


**** 11/09/21 18:28:53 ******* PSpice Lite (March 2016) ******* ID# 10813 ****

 ** Profile: "SCHEMATIC1-1"  [ D:\Software\Capture_PSpice\Project\9.3\jj-PSpiceFiles\SCHEMATIC1\1.sim ] 


 ****     SMALL SIGNAL BIAS SOLUTION       TEMPERATURE =   27.000 DEG C

                      MONTE CARLO PASS 44

******************************************************************************



 NODE   VOLTAGE     NODE   VOLTAGE     NODE   VOLTAGE     NODE   VOLTAGE


(  OUT)     .0116  (  VCC)   12.0000  (  VEE)  -11.0000  (N00296) 37.60E-06     

(N00323)    0.0000 (N00378)    0.0000 (X_U1.6) 46.03E-06 (X_U1.7)     .0116     

(X_U1.8)     .0116 (X_U1.9)    0.0000 (X_U1.10)    -.6076                       

(X_U1.11)   11.9600                   (X_U1.12)   11.9600                       

(X_U1.13)    -.5937                   (X_U1.14)    -.5937                       

(X_U1.53)   11.0000                   (X_U1.54)  -10.0000                       

(X_U1.90) 79.58E-06                   (X_U1.91)   40.0000                       

(X_U1.92)  -40.0000                   (X_U1.99)     .5000                   




    VOLTAGE SOURCE CURRENTS
    NAME         CURRENT

    V_V1         0.000E+00
    V_V2        -1.281E-03
    V_V3         1.282E-03
    X_U1.vb      4.603E-10
    X_U1.vc      1.099E-11
    X_U1.ve      1.138E-11
    X_U1.vlim    7.958E-08
    X_U1.vlp    -4.000E-11
    X_U1.vln    -4.000E-11

    TOTAL POWER DISSIPATION   2.95E-02  WATTS


**** 11/09/21 18:28:53 ******* PSpice Lite (March 2016) ******* ID# 10813 ****

 ** Profile: "SCHEMATIC1-1"  [ D:\Software\Capture_PSpice\Project\9.3\jj-PSpiceFiles\SCHEMATIC1\1.sim ] 


 ****     SMALL SIGNAL BIAS SOLUTION       TEMPERATURE =   27.000 DEG C

                      MONTE CARLO PASS 45

******************************************************************************



 NODE   VOLTAGE     NODE   VOLTAGE     NODE   VOLTAGE     NODE   VOLTAGE


(  OUT)     .0127  (  VCC)   12.0000  (  VEE)  -11.0000  (N00296) 37.59E-06     

(N00323)    0.0000 (N00378)    0.0000 (X_U1.6) 45.93E-06 (X_U1.7)     .0127     

(X_U1.8)     .0127 (X_U1.9)    0.0000 (X_U1.10)    -.6076                       

(X_U1.11)   11.9600                   (X_U1.12)   11.9600                       

(X_U1.13)    -.5937                   (X_U1.14)    -.5937                       

(X_U1.53)   11.0000                   (X_U1.54)  -10.0000                       

(X_U1.90) 79.58E-06                   (X_U1.91)   40.0000                       

(X_U1.92)  -40.0000                   (X_U1.99)     .5000                   




    VOLTAGE SOURCE CURRENTS
    NAME         CURRENT

    V_V1         0.000E+00
    V_V2        -1.281E-03
    V_V3         1.282E-03
    X_U1.vb      4.593E-10
    X_U1.vc      1.099E-11
    X_U1.ve      1.138E-11
    X_U1.vlim    7.958E-08
    X_U1.vlp    -4.000E-11
    X_U1.vln    -4.000E-11

    TOTAL POWER DISSIPATION   2.95E-02  WATTS


**** 11/09/21 18:28:53 ******* PSpice Lite (March 2016) ******* ID# 10813 ****

 ** Profile: "SCHEMATIC1-1"  [ D:\Software\Capture_PSpice\Project\9.3\jj-PSpiceFiles\SCHEMATIC1\1.sim ] 


 ****     SMALL SIGNAL BIAS SOLUTION       TEMPERATURE =   27.000 DEG C

                      MONTE CARLO PASS 46

******************************************************************************



 NODE   VOLTAGE     NODE   VOLTAGE     NODE   VOLTAGE     NODE   VOLTAGE


(  OUT)     .0111  (  VCC)   12.0000  (  VEE)  -11.0000  (N00296) 37.60E-06     

(N00323)    0.0000 (N00378)    0.0000 (X_U1.6) 46.08E-06 (X_U1.7)     .0111     

(X_U1.8)     .0111 (X_U1.9)    0.0000 (X_U1.10)    -.6076                       

(X_U1.11)   11.9600                   (X_U1.12)   11.9600                       

(X_U1.13)    -.5937                   (X_U1.14)    -.5937                       

(X_U1.53)   11.0000                   (X_U1.54)  -10.0000                       

(X_U1.90) 79.58E-06                   (X_U1.91)   40.0000                       

(X_U1.92)  -40.0000                   (X_U1.99)     .5000                   




    VOLTAGE SOURCE CURRENTS
    NAME         CURRENT

    V_V1         0.000E+00
    V_V2        -1.281E-03
    V_V3         1.282E-03
    X_U1.vb      4.608E-10
    X_U1.vc      1.099E-11
    X_U1.ve      1.138E-11
    X_U1.vlim    7.958E-08
    X_U1.vlp    -4.000E-11
    X_U1.vln    -4.000E-11

    TOTAL POWER DISSIPATION   2.95E-02  WATTS


**** 11/09/21 18:28:53 ******* PSpice Lite (March 2016) ******* ID# 10813 ****

 ** Profile: "SCHEMATIC1-1"  [ D:\Software\Capture_PSpice\Project\9.3\jj-PSpiceFiles\SCHEMATIC1\1.sim ] 


 ****     SMALL SIGNAL BIAS SOLUTION       TEMPERATURE =   27.000 DEG C

                      MONTE CARLO PASS 47

******************************************************************************



 NODE   VOLTAGE     NODE   VOLTAGE     NODE   VOLTAGE     NODE   VOLTAGE


(  OUT)     .0125  (  VCC)   12.0000  (  VEE)  -11.0000  (N00296) 37.59E-06     

(N00323)    0.0000 (N00378)    0.0000 (X_U1.6) 45.95E-06 (X_U1.7)     .0125     

(X_U1.8)     .0125 (X_U1.9)    0.0000 (X_U1.10)    -.6076                       

(X_U1.11)   11.9600                   (X_U1.12)   11.9600                       

(X_U1.13)    -.5937                   (X_U1.14)    -.5937                       

(X_U1.53)   11.0000                   (X_U1.54)  -10.0000                       

(X_U1.90) 79.58E-06                   (X_U1.91)   40.0000                       

(X_U1.92)  -40.0000                   (X_U1.99)     .5000                   




    VOLTAGE SOURCE CURRENTS
    NAME         CURRENT

    V_V1         0.000E+00
    V_V2        -1.281E-03
    V_V3         1.282E-03
    X_U1.vb      4.595E-10
    X_U1.vc      1.099E-11
    X_U1.ve      1.138E-11
    X_U1.vlim    7.958E-08
    X_U1.vlp    -4.000E-11
    X_U1.vln    -4.000E-11

    TOTAL POWER DISSIPATION   2.95E-02  WATTS


**** 11/09/21 18:28:53 ******* PSpice Lite (March 2016) ******* ID# 10813 ****

 ** Profile: "SCHEMATIC1-1"  [ D:\Software\Capture_PSpice\Project\9.3\jj-PSpiceFiles\SCHEMATIC1\1.sim ] 


 ****     SMALL SIGNAL BIAS SOLUTION       TEMPERATURE =   27.000 DEG C

                      MONTE CARLO PASS 48

******************************************************************************



 NODE   VOLTAGE     NODE   VOLTAGE     NODE   VOLTAGE     NODE   VOLTAGE


(  OUT)     .0119  (  VCC)   12.0000  (  VEE)  -11.0000  (N00296) 37.59E-06     

(N00323)    0.0000 (N00378)    0.0000 (X_U1.6) 46.00E-06 (X_U1.7)     .0119     

(X_U1.8)     .0119 (X_U1.9)    0.0000 (X_U1.10)    -.6076                       

(X_U1.11)   11.9600                   (X_U1.12)   11.9600                       

(X_U1.13)    -.5937                   (X_U1.14)    -.5937                       

(X_U1.53)   11.0000                   (X_U1.54)  -10.0000                       

(X_U1.90) 79.58E-06                   (X_U1.91)   40.0000                       

(X_U1.92)  -40.0000                   (X_U1.99)     .5000                   




    VOLTAGE SOURCE CURRENTS
    NAME         CURRENT

    V_V1         0.000E+00
    V_V2        -1.281E-03
    V_V3         1.282E-03
    X_U1.vb      4.600E-10
    X_U1.vc      1.099E-11
    X_U1.ve      1.138E-11
    X_U1.vlim    7.958E-08
    X_U1.vlp    -4.000E-11
    X_U1.vln    -4.000E-11

    TOTAL POWER DISSIPATION   2.95E-02  WATTS


**** 11/09/21 18:28:53 ******* PSpice Lite (March 2016) ******* ID# 10813 ****

 ** Profile: "SCHEMATIC1-1"  [ D:\Software\Capture_PSpice\Project\9.3\jj-PSpiceFiles\SCHEMATIC1\1.sim ] 


 ****     SMALL SIGNAL BIAS SOLUTION       TEMPERATURE =   27.000 DEG C

                      MONTE CARLO PASS 49

******************************************************************************



 NODE   VOLTAGE     NODE   VOLTAGE     NODE   VOLTAGE     NODE   VOLTAGE


(  OUT)     .0114  (  VCC)   12.0000  (  VEE)  -11.0000  (N00296) 37.60E-06     

(N00323)    0.0000 (N00378)    0.0000 (X_U1.6) 46.05E-06 (X_U1.7)     .0114     

(X_U1.8)     .0114 (X_U1.9)    0.0000 (X_U1.10)    -.6076                       

(X_U1.11)   11.9600                   (X_U1.12)   11.9600                       

(X_U1.13)    -.5937                   (X_U1.14)    -.5937                       

(X_U1.53)   11.0000                   (X_U1.54)  -10.0000                       

(X_U1.90) 79.58E-06                   (X_U1.91)   40.0000                       

(X_U1.92)  -40.0000                   (X_U1.99)     .5000                   




    VOLTAGE SOURCE CURRENTS
    NAME         CURRENT

    V_V1         0.000E+00
    V_V2        -1.281E-03
    V_V3         1.282E-03
    X_U1.vb      4.605E-10
    X_U1.vc      1.099E-11
    X_U1.ve      1.138E-11
    X_U1.vlim    7.958E-08
    X_U1.vlp    -4.000E-11
    X_U1.vln    -4.000E-11

    TOTAL POWER DISSIPATION   2.95E-02  WATTS


**** 11/09/21 18:28:53 ******* PSpice Lite (March 2016) ******* ID# 10813 ****

 ** Profile: "SCHEMATIC1-1"  [ D:\Software\Capture_PSpice\Project\9.3\jj-PSpiceFiles\SCHEMATIC1\1.sim ] 


 ****     SMALL SIGNAL BIAS SOLUTION       TEMPERATURE =   27.000 DEG C

                      MONTE CARLO PASS 50

******************************************************************************



 NODE   VOLTAGE     NODE   VOLTAGE     NODE   VOLTAGE     NODE   VOLTAGE


(  OUT)     .0114  (  VCC)   12.0000  (  VEE)  -11.0000  (N00296) 37.60E-06     

(N00323)    0.0000 (N00378)    0.0000 (X_U1.6) 46.05E-06 (X_U1.7)     .0114     

(X_U1.8)     .0114 (X_U1.9)    0.0000 (X_U1.10)    -.6076                       

(X_U1.11)   11.9600                   (X_U1.12)   11.9600                       

(X_U1.13)    -.5937                   (X_U1.14)    -.5937                       

(X_U1.53)   11.0000                   (X_U1.54)  -10.0000                       

(X_U1.90) 79.58E-06                   (X_U1.91)   40.0000                       

(X_U1.92)  -40.0000                   (X_U1.99)     .5000                   




    VOLTAGE SOURCE CURRENTS
    NAME         CURRENT

    V_V1         0.000E+00
    V_V2        -1.281E-03
    V_V3         1.282E-03
    X_U1.vb      4.605E-10
    X_U1.vc      1.099E-11
    X_U1.ve      1.138E-11
    X_U1.vlim    7.958E-08
    X_U1.vlp    -4.000E-11
    X_U1.vln    -4.000E-11

    TOTAL POWER DISSIPATION   2.95E-02  WATTS


**** 11/09/21 18:28:53 ******* PSpice Lite (March 2016) ******* ID# 10813 ****

 ** Profile: "SCHEMATIC1-1"  [ D:\Software\Capture_PSpice\Project\9.3\jj-PSpiceFiles\SCHEMATIC1\1.sim ] 


 ****     SMALL SIGNAL BIAS SOLUTION       TEMPERATURE =   27.000 DEG C

                      MONTE CARLO PASS 51

******************************************************************************



 NODE   VOLTAGE     NODE   VOLTAGE     NODE   VOLTAGE     NODE   VOLTAGE


(  OUT)     .0121  (  VCC)   12.0000  (  VEE)  -11.0000  (N00296) 37.59E-06     

(N00323)    0.0000 (N00378)    0.0000 (X_U1.6) 45.99E-06 (X_U1.7)     .0121     

(X_U1.8)     .0121 (X_U1.9)    0.0000 (X_U1.10)    -.6076                       

(X_U1.11)   11.9600                   (X_U1.12)   11.9600                       

(X_U1.13)    -.5937                   (X_U1.14)    -.5937                       

(X_U1.53)   11.0000                   (X_U1.54)  -10.0000                       

(X_U1.90) 79.58E-06                   (X_U1.91)   40.0000                       

(X_U1.92)  -40.0000                   (X_U1.99)     .5000                   




    VOLTAGE SOURCE CURRENTS
    NAME         CURRENT

    V_V1         0.000E+00
    V_V2        -1.281E-03
    V_V3         1.282E-03
    X_U1.vb      4.599E-10
    X_U1.vc      1.099E-11
    X_U1.ve      1.138E-11
    X_U1.vlim    7.958E-08
    X_U1.vlp    -4.000E-11
    X_U1.vln    -4.000E-11

    TOTAL POWER DISSIPATION   2.95E-02  WATTS


**** 11/09/21 18:28:53 ******* PSpice Lite (March 2016) ******* ID# 10813 ****

 ** Profile: "SCHEMATIC1-1"  [ D:\Software\Capture_PSpice\Project\9.3\jj-PSpiceFiles\SCHEMATIC1\1.sim ] 


 ****     SMALL SIGNAL BIAS SOLUTION       TEMPERATURE =   27.000 DEG C

                      MONTE CARLO PASS 52

******************************************************************************



 NODE   VOLTAGE     NODE   VOLTAGE     NODE   VOLTAGE     NODE   VOLTAGE


(  OUT)     .0118  (  VCC)   12.0000  (  VEE)  -11.0000  (N00296) 37.60E-06     

(N00323)    0.0000 (N00378)    0.0000 (X_U1.6) 46.01E-06 (X_U1.7)     .0118     

(X_U1.8)     .0118 (X_U1.9)    0.0000 (X_U1.10)    -.6076                       

(X_U1.11)   11.9600                   (X_U1.12)   11.9600                       

(X_U1.13)    -.5937                   (X_U1.14)    -.5937                       

(X_U1.53)   11.0000                   (X_U1.54)  -10.0000                       

(X_U1.90) 79.58E-06                   (X_U1.91)   40.0000                       

(X_U1.92)  -40.0000                   (X_U1.99)     .5000                   




    VOLTAGE SOURCE CURRENTS
    NAME         CURRENT

    V_V1         0.000E+00
    V_V2        -1.281E-03
    V_V3         1.282E-03
    X_U1.vb      4.601E-10
    X_U1.vc      1.099E-11
    X_U1.ve      1.138E-11
    X_U1.vlim    7.958E-08
    X_U1.vlp    -4.000E-11
    X_U1.vln    -4.000E-11

    TOTAL POWER DISSIPATION   2.95E-02  WATTS


**** 11/09/21 18:28:53 ******* PSpice Lite (March 2016) ******* ID# 10813 ****

[...]
                        (  17.776% of Nominal)

Pass   86              3.3345E+03  (1.35 sigma)  lower  at F =   10.0000E+03
                        (  17.842% of Nominal)

Pass  132              3.3149E+03  (1.34 sigma)  lower  at F =   10.0000E+03
                        (  18.324% of Nominal)

Pass  139              3.2636E+03  (1.32 sigma)  lower  at F =   10.0000E+03
                        (  19.59 % of Nominal)

Pass   71              3.2626E+03  (1.32 sigma)  lower  at F =   10.0000E+03
                        (  19.615% of Nominal)

Pass  176              3.2512E+03  (1.32 sigma)  higher  at F =    9.5499E+03
                        ( 406.79% of Nominal)

Pass  178              3.2502E+03  (1.32 sigma)  lower  at F =   10.0000E+03
                        (  19.92 % of Nominal)

Pass  125              3.2414E+03  (1.31 sigma)  lower  at F =   10.0000E+03
                        (  20.136% of Nominal)

Pass  143              3.2228E+03  (1.30 sigma)  lower  at F =   10.0000E+03
                        (  20.594% of Nominal)

Pass  167              3.2224E+03  (1.30 sigma)  higher  at F =    9.5499E+03
                        ( 404.06% of Nominal)

Pass   18              3.2169E+03  (1.30 sigma)  lower  at F =   10.0000E+03
                        (  20.74 % of Nominal)

Pass   29              3.2116E+03  (1.30 sigma)  lower  at F =   10.0000E+03
                        (  20.869% of Nominal)

Pass  131              3.2061E+03  (1.30 sigma)  lower  at F =   10.0000E+03
                        (  21.007% of Nominal)

Pass   34              3.2005E+03  (1.30 sigma)  lower  at F =   10.0000E+03
                        (  21.143% of Nominal)

Pass   31              3.1862E+03  (1.29 sigma)  lower  at F =   10.0000E+03
                        (  21.497% of Nominal)

Pass   37              3.1820E+03  (1.29 sigma)  higher  at F =    9.5499E+03
                        ( 400.25% of Nominal)

Pass   32              3.1727E+03  (1.28 sigma)  lower  at F =   10.0000E+03
                        (  21.829% of Nominal)

Pass   89              3.1680E+03  (1.28 sigma)  lower  at F =   10.0000E+03
                        (  21.945% of Nominal)

Pass  190              3.1669E+03  (1.28 sigma)  lower  at F =   10.0000E+03
                        (  21.972% of Nominal)

Pass   49              3.1606E+03  (1.28 sigma)  lower  at F =   10.0000E+03
                        (  22.126% of Nominal)

Pass  164              3.1562E+03  (1.28 sigma)  lower  at F =   10.0000E+03
                        (  22.235% of Nominal)

Pass   14              3.1511E+03  (1.28 sigma)  higher  at F =    9.5499E+03
                        ( 397.34% of Nominal)

Pass   56              3.1446E+03  (1.27 sigma)  lower  at F =   10.0000E+03
                        (  22.522% of Nominal)

Pass  133              3.1435E+03  (1.27 sigma)  lower  at F =   10.0000E+03
                        (  22.548% of Nominal)

Pass  149              3.1427E+03  (1.27 sigma)  higher  at F =    9.5499E+03
                        ( 396.55% of Nominal)

Pass   33              3.1414E+03  (1.27 sigma)  lower  at F =   10.0000E+03
                        (  22.601% of Nominal)

Pass  120              3.1349E+03  (1.27 sigma)  higher  at F =    9.5499E+03
                        ( 395.8 % of Nominal)

Pass  198              3.1093E+03  (1.26 sigma)  lower  at F =   10.0000E+03
                        (  23.392% of Nominal)

Pass  197              3.1032E+03  (1.26 sigma)  lower  at F =   10.0000E+03
                        (  23.541% of Nominal)

Pass  108              3.1026E+03  (1.26 sigma)  lower  at F =   10.0000E+03
                        (  23.557% of Nominal)

Pass   36              3.1004E+03  (1.25 sigma)  lower  at F =   10.0000E+03
                        (  23.609% of Nominal)

Pass   76              3.0626E+03  (1.24 sigma)  lower  at F =   10.0000E+03
                        (  24.541% of Nominal)

Pass  151              3.0545E+03  (1.24 sigma)  lower  at F =   10.0000E+03
                        (  24.742% of Nominal)

Pass   54              3.0465E+03  (1.23 sigma)  lower  at F =   10.0000E+03
                        (  24.938% of Nominal)

Pass  137              3.0436E+03  (1.23 sigma)  lower  at F =   10.0000E+03
                        (  25.01 % of Nominal)

Pass    6              3.0261E+03  (1.22 sigma)  higher  at F =    9.5499E+03
                        ( 385.54% of Nominal)

Pass  104              3.0160E+03  (1.22 sigma)  higher  at F =    9.5499E+03
                        ( 384.59% of Nominal)

Pass   60              3.0096E+03  (1.22 sigma)  lower  at F =   10.0000E+03
                        (  25.847% of Nominal)

Pass   82              2.9969E+03  (1.21 sigma)  higher  at F =    9.5499E+03
                        ( 382.79% of Nominal)

Pass  183              2.9805E+03  (1.21 sigma)  lower  at F =   10.0000E+03
                        (  26.565% of Nominal)

Pass  173              2.8723E+03  (1.16 sigma)  lower  at F =   10.0000E+03
                        (  29.23 % of Nominal)

Pass  102              2.8689E+03  (1.16 sigma)  higher  at F =    9.5499E+03
                        ( 370.71% of Nominal)

Pass  182              2.8584E+03  (1.16 sigma)  lower  at F =   10.0000E+03
                        (  29.572% of Nominal)

Pass   20              2.8536E+03  (1.15 sigma)  lower  at F =   10.0000E+03
                        (  29.692% of Nominal)

Pass   22              2.8438E+03  (1.15 sigma)  lower  at F =   10.0000E+03
                        (  29.933% of Nominal)

Pass   64              2.8413E+03  (1.15 sigma)  lower  at F =   10.0000E+03
                        (  29.995% of Nominal)

Pass   67              2.8333E+03  (1.15 sigma)  lower  at F =   10.0000E+03
                        (  30.192% of Nominal)

Pass   78              2.8297E+03  (1.15 sigma)  lower  at F =   10.0000E+03
                        (  30.28 % of Nominal)

Pass   58              2.8252E+03  (1.14 sigma)  higher  at F =    9.5499E+03
                        ( 366.59% of Nominal)

Pass  150              2.8159E+03  (1.14 sigma)  lower  at F =   10.0000E+03
                        (  30.619% of Nominal)

Pass   95              2.7954E+03  (1.13 sigma)  lower  at F =   10.0000E+03
                        (  31.124% of Nominal)

Pass   81              2.7892E+03  (1.13 sigma)  lower  at F =   10.0000E+03
                        (  31.277% of Nominal)

Pass  130              2.7850E+03  (1.13 sigma)  lower  at F =   10.0000E+03
                        (  31.382% of Nominal)

Pass   74              2.7786E+03  (1.12 sigma)  lower  at F =   10.0000E+03
                        (  31.54 % of Nominal)

Pass  160              2.7782E+03  (1.12 sigma)  lower  at F =   10.0000E+03
                        (  31.549% of Nominal)

Pass  135              2.7680E+03  (1.12 sigma)  lower  at F =   10.0000E+03
                        (  31.8  % of Nominal)

Pass  199              2.7477E+03  (1.11 sigma)  lower  at F =   10.0000E+03
                        (  32.301% of Nominal)

Pass  140              2.7335E+03  (1.11 sigma)  lower  at F =   10.0000E+03
                        (  32.65 % of Nominal)

Pass  119              2.7305E+03  (1.10 sigma)  lower  at F =   10.0000E+03
                        (  32.723% of Nominal)

Pass  191              2.7241E+03  (1.10 sigma)  lower  at F =   10.0000E+03
                        (  32.882% of Nominal)

Pass   59              2.7223E+03  (1.10 sigma)  lower  at F =   10.0000E+03
                        (  32.927% of Nominal)

Pass  187              2.6984E+03  (1.09 sigma)  lower  at F =   10.0000E+03
                        (  33.516% of Nominal)

Pass   92              2.6961E+03  (1.09 sigma)  lower  at F =   10.0000E+03
                        (  33.572% of Nominal)

Pass  162              2.6813E+03  (1.09 sigma)  lower  at F =   10.0000E+03
                        (  33.936% of Nominal)

Pass   21              2.6507E+03  (1.07 sigma)  lower  at F =   10.0000E+03
                        (  34.691% of Nominal)

Pass  194              2.6394E+03  (1.07 sigma)  lower  at F =   10.0000E+03
                        (  34.969% of Nominal)

Pass    2              2.5518E+03  (1.03 sigma)  lower  at F =   10.0000E+03
                        (  37.128% of Nominal)

Pass  189              2.4824E+03  (1.00 sigma)  lower  at F =   10.0000E+03
                        (  38.838% of Nominal)

Pass  169              2.4771E+03  (1.00 sigma)  lower  at F =   10.0000E+03
                        (  38.969% of Nominal)

Pass   43              2.4693E+03  (1.00 sigma)  lower  at F =   10.0000E+03
                        (  39.16 % of Nominal)

Pass  136              2.4644E+03  (1.00 sigma)  lower  at F =   10.0000E+03
                        (  39.28 % of Nominal)

Pass  117              2.4573E+03  ( .99 sigma)  lower  at F =   10.0000E+03
                        (  39.456% of Nominal)

Pass   11              2.4440E+03  ( .99 sigma)  lower  at F =   10.0000E+03
                        (  39.783% of Nominal)

Pass   55              2.4424E+03  ( .99 sigma)  lower  at F =   10.0000E+03
                        (  39.823% of Nominal)

Pass   96              2.4381E+03  ( .99 sigma)  lower  at F =   10.0000E+03
                        (  39.927% of Nominal)

Pass   39              2.4358E+03  ( .99 sigma)  higher  at F =    9.7724E+03
                        ( 217.99% of Nominal)

Pass   63              2.4344E+03  ( .99 sigma)  lower  at F =   10.0000E+03
                        (  40.02 % of Nominal)

Pass   68              2.4335E+03  ( .98 sigma)  lower  at F =   10.0000E+03
                        (  40.041% of Nominal)

Pass  146              2.4321E+03  ( .98 sigma)  lower  at F =   10.0000E+03
                        (  40.077% of Nominal)

Pass   30              2.4128E+03  ( .98 sigma)  lower  at F =   10.0000E+03
                        (  40.551% of Nominal)

Pass   83              2.4096E+03  ( .98 sigma)  lower  at F =   10.0000E+03
                        (  40.632% of Nominal)

Pass  121              2.3896E+03  ( .97 sigma)  lower  at F =   10.0000E+03
                        (  41.124% of Nominal)

Pass  171              2.3894E+03  ( .97 sigma)  higher  at F =    9.7724E+03
                        ( 215.74% of Nominal)

Pass   51              2.3664E+03  ( .96 sigma)  lower  at F =   10.0000E+03
                        (  41.695% of Nominal)

Pass  161              2.3529E+03  ( .95 sigma)  higher  at F =    9.7724E+03
                        ( 213.98% of Nominal)

Pass  129              2.3385E+03  ( .95 sigma)  higher  at F =    9.7724E+03
                        ( 213.28% of Nominal)

Pass   99              2.3331E+03  ( .94 sigma)  higher  at F =    9.7724E+03
                        ( 213.01% of Nominal)

Pass  111              2.3033E+03  ( .93 sigma)  lower  at F =   10.0000E+03
                        (  43.249% of Nominal)

Pass  106              2.2638E+03  ( .92 sigma)  lower  at F =   10.0000E+03
                        (  44.224% of Nominal)

Pass  192              2.2432E+03  ( .91 sigma)  lower  at F =   10.0000E+03
                        (  44.731% of Nominal)

Pass   15              2.2173E+03  ( .90 sigma)  lower  at F =   10.0000E+03
                        (  45.368% of Nominal)

Pass  147              2.2118E+03  ( .90 sigma)  higher  at F =    9.7724E+03
                        ( 207.14% of Nominal)

Pass   62              2.1973E+03  ( .89 sigma)  lower  at F =   10.0000E+03
                        (  45.862% of Nominal)

Pass   47              2.1849E+03  ( .88 sigma)  lower  at F =   10.0000E+03
                        (  46.168% of Nominal)

Pass   50              2.1725E+03  ( .88 sigma)  lower  at F =   10.0000E+03
                        (  46.471% of Nominal)

Pass   48              2.1476E+03  ( .87 sigma)  lower  at F =   10.0000E+03
                        (  47.087% of Nominal)

Pass  141              2.1417E+03  ( .87 sigma)  higher  at F =    9.7724E+03
                        ( 203.74% of Nominal)

Pass  196              2.1041E+03  ( .85 sigma)  lower  at F =   10.0000E+03
                        (  48.158% of Nominal)

Pass   52              2.0848E+03  ( .84 sigma)  lower  at F =   10.0000E+03
                        (  48.632% of Nominal)

Pass  109              2.0507E+03  ( .83 sigma)  lower  at F =   10.0000E+03
                        (  49.474% of Nominal)

Pass   57              2.0392E+03  ( .83 sigma)  lower  at F =   10.0000E+03
                        (  49.757% of Nominal)

Pass   91              2.0115E+03  ( .81 sigma)  higher  at F =    9.7724E+03
                        ( 197.44% of Nominal)

Pass   26              1.9214E+03  ( .78 sigma)  lower  at F =   10.0000E+03
                        (  52.659% of Nominal)

Pass   24              1.8961E+03  ( .77 sigma)  lower  at F =   10.0000E+03
                        (  53.282% of Nominal)

Pass   75              1.7218E+03  ( .70 sigma)  lower  at F =   10.0000E+03
                        (  57.577% of Nominal)

Pass  145              1.6961E+03  ( .69 sigma)  lower  at F =   10.0000E+03
                        (  58.212% of Nominal)

Pass  186              1.6675E+03  ( .67 sigma)  lower  at F =   10.0000E+03
                        (  58.914% of Nominal)

Pass   12              1.6584E+03  ( .67 sigma)  lower  at F =   10.0000E+03
                        (  59.138% of Nominal)

Pass  195              1.5639E+03  ( .63 sigma)  higher  at F =    9.7724E+03
                        ( 175.76% of Nominal)

Pass  103              1.4842E+03  ( .60 sigma)  lower  at F =   10.0000E+03
                        (  63.431% of Nominal)

Pass  118              1.4830E+03  ( .60 sigma)  lower  at F =   10.0000E+03
                        (  63.46 % of Nominal)

Pass  175              1.4108E+03  ( .57 sigma)  lower  at F =   10.0000E+03
                        (  65.239% of Nominal)

Pass  157              1.3947E+03  ( .56 sigma)  lower  at F =   10.0000E+03
                        (  65.637% of Nominal)

Pass   13              1.3720E+03  ( .56 sigma)  lower  at F =   10.0000E+03
                        (  66.196% of Nominal)

Pass   80              1.3390E+03  ( .54 sigma)  lower  at F =   10.0000E+03
                        (  67.009% of Nominal)

Pass    5              1.3190E+03  ( .53 sigma)  lower  at F =   10.0000E+03
                        (  67.502% of Nominal)

Pass  158              1.3055E+03  ( .53 sigma)  lower  at F =   10.0000E+03
                        (  67.833% of Nominal)

Pass   46              1.2389E+03  ( .50 sigma)  lower  at F =   10.0000E+03
                        (  69.476% of Nominal)

Pass  144              1.2361E+03  ( .50 sigma)  lower  at F =   10.0000E+03
                        (  69.544% of Nominal)

Pass  154              1.1753E+03  ( .48 sigma)  lower  at F =   10.0000E+03
                        (  71.043% of Nominal)

Pass   90              1.1591E+03  ( .47 sigma)  lower  at F =   10.0000E+03
                        (  71.442% of Nominal)

Pass  163              1.1498E+03  ( .47 sigma)  lower  at F =   10.0000E+03
                        (  71.671% of Nominal)

Pass  113              1.0892E+03  ( .44 sigma)  lower  at F =   10.0000E+03
                        (  73.163% of Nominal)

Pass  188              1.0044E+03  ( .41 sigma)  lower  at F =   10.0000E+03
                        (  75.254% of Nominal)

Pass   28               991.11  ( .40 sigma)  lower  at F =   10.0000E+03
                        (  75.58 % of Nominal)

Pass  185               973.1   ( .39 sigma)  higher  at F =    9.7724E+03
                        ( 147.14% of Nominal)

Pass   40               940.37  ( .38 sigma)  lower  at F =   10.0000E+03
                        (  76.83 % of Nominal)

Pass   94               925.32  ( .37 sigma)  lower  at F =   10.0000E+03
                        (  77.201% of Nominal)

Pass   79               878.7   ( .36 sigma)  lower  at F =   10.0000E+03
                        (  78.35 % of Nominal)

Pass   72               869.46  ( .35 sigma)  lower  at F =   10.0000E+03
                        (  78.578% of Nominal)

Pass   84               855.73  ( .35 sigma)  lower  at F =   10.0000E+03
                        (  78.916% of Nominal)

Pass   73               841.43  ( .34 sigma)  lower  at F =   10.0000E+03
                        (  79.268% of Nominal)

Pass   42               784.78  ( .32 sigma)  lower  at F =   10.0000E+03
                        (  80.664% of Nominal)

Pass   10               774.33  ( .31 sigma)  lower  at F =   10.0000E+03
                        (  80.921% of Nominal)

Pass  110               749.77  ( .30 sigma)  lower  at F =   10.0000E+03
                        (  81.527% of Nominal)

Pass   61               738.35  ( .30 sigma)  lower  at F =   10.0000E+03
                        (  81.808% of Nominal)

Pass   65               696.26  ( .28 sigma)  higher  at F =    9.7724E+03
                        ( 133.73% of Nominal)

Pass  148               686.36  ( .28 sigma)  lower  at F =   10.0000E+03
                        (  83.089% of Nominal)

Pass   93               685.7   ( .28 sigma)  lower  at F =    9.7724E+03
                        (  66.785% of Nominal)

Pass  193               684.32  ( .28 sigma)  lower  at F =   10.0000E+03
                        (  83.139% of Nominal)

Pass  105               664.11  ( .27 sigma)  lower  at F =   10.0000E+03
                        (  83.637% of Nominal)

Pass  100               655.97  ( .27 sigma)  lower  at F =    9.7724E+03
                        (  68.225% of Nominal)

Pass   19               600.59  ( .24 sigma)  lower  at F =   10.0000E+03
                        (  85.202% of Nominal)

Pass    3               599.96  ( .24 sigma)  higher  at F =   10.0000E+03
                        ( 114.78% of Nominal)

Pass  112               561.47  ( .23 sigma)  lower  at F =    9.7724E+03
                        (  72.802% of Nominal)

Pass    4               527.85  ( .21 sigma)  lower  at F =    9.7724E+03
                        (  74.431% of Nominal)

Pass   77               484.68  ( .20 sigma)  lower  at F =    9.7724E+03
                        (  76.522% of Nominal)

Pass   69               447.63  ( .18 sigma)  lower  at F =    9.7724E+03
                        (  78.317% of Nominal)

Pass  142               419.69  ( .17 sigma)  lower  at F =    9.7724E+03
                        (  79.67 % of Nominal)

Pass    8               383.58  ( .16 sigma)  higher  at F =   10.0000E+03
                        ( 109.45% of Nominal)

Pass  159               355.76  ( .14 sigma)  higher  at F =    9.7724E+03
                        ( 117.23% of Nominal)

Pass   97               324.88  ( .13 sigma)  higher  at F =   10.0000E+03
                        ( 108   % of Nominal)

Pass  107               291.09  ( .12 sigma)  higher  at F =   10.0000E+03
                        ( 107.17% of Nominal)

Pass  180               241.43  ( .10 sigma)  lower  at F =    9.7724E+03
                        (  88.305% of Nominal)

Pass  134               217.78  ( .09 sigma)  higher  at F =    9.7724E+03
                        ( 110.55% of Nominal)

Pass  126               200.7   ( .08 sigma)  higher  at F =    9.7724E+03
                        ( 109.72% of Nominal)

Pass  124               115.04  ( .05 sigma)  higher  at F =   10.0000E+03
                        ( 102.83% of Nominal)

Pass    7               82.191  ( .03 sigma)  lower  at F =   10.0000E+03
                        (  97.975% of Nominal)



          JOB CONCLUDED

**** 11/09/21 18:28:53 ******* PSpice Lite (March 2016) ******* ID# 10813 ****

 ** Profile: "SCHEMATIC1-1"  [ D:\Software\Capture_PSpice\Project\9.3\jj-PSpiceFiles\SCHEMATIC1\1.sim ] 


 ****     JOB STATISTICS SUMMARY


******************************************************************************



  Total job time (using Solver 1)   =        3.19
