
**** 11/09/21 18:27:39 ******* PSpice Lite (March 2016) ******* ID# 10813 ****

 ** Profile: "SCHEMATIC1-1"  [ D:\Software\Capture_PSpice\Project\9.3\jj-PSpiceFiles\SCHEMATIC1\1.sim ] 


 ****     CIRCUIT DESCRIPTION


******************************************************************************




** Creating circuit file "1.cir" 
** WARNING: THIS AUTOMATICALLY GENERATED FILE MAY BE OVERWRITTEN BY SUBSEQUENT SIMULATIONS

*Libraries: 
* Profile Libraries :
* Local Libraries :
* From [PSPICE NETLIST] section of C:\SPB_Data\cdssetup\OrCAD_PSpice\17.2.0\PSpice.ini file:
.lib "nomd.lib" 

*Analysis directives: 
.AC DEC 100 0.1 10k
.MC 200 AC V([OUT]) YMAX OUTPUT ALL 
.OPTIONS ADVCONV
.PROBE64 V(alias(*)) I(alias(*)) W(alias(*)) D(alias(*)) NOISE(alias(*)) 
.INC "..\SCHEMATIC1.net" 



**** INCLUDING SCHEMATIC1.net ****
* source JJ
V_V1         N00378 0 DC 0Vdc AC 1Vac 
R_R2         N00378 N00323 R_R2 1..5k TC=0,0 
.model        R_R2 RES R=1 DEV=10% TC1=0 TC2=0
R_R3         N00323 0 R_R3 1.5k TC=0,0 
.model        R_R3 RES R=1 DEV=10% TC1=0 TC2=0
R_R4         N00296 N00247 R_R4 150K TC=0,0 
.model        R_R4 RES R=1 DEV=10% TC1=0 TC2=0
C_C1         N00323 N00296 C_C1 10n  TC=0,0 
.model        C_C1 CAP C=1 DEV=10% TC1=0 TC2=0 VC1=0 VC2=0
X_U1         0 N00296 VCC VEE N00247 uA741
V_V2         VCC 0 12Vdc
V_V3         VEE 0 -11Vdc
C_C2         N00323 N00247 C_C2 10n  TC=0,0 
.model        C_C2 CAP C=1 DEV=10% TC1=0 TC2=0 VC1=0 VC2=0

**** RESUMING 1.cir ****
.END

ERROR(ORPSIM-15140): Node OUT is undefined

ERROR(ORPSIM-15142): Node OUT is floating
