
**** 11/16/21 11:41:27 ******* PSpice Lite (March 2016) ******* ID# 10813 ****

 ** Profile: "SCHEMATIC2-2"  [ G:\030\11.16\16-PSpiceFiles\SCHEMATIC2\2.sim ] 


 ****     CIRCUIT DESCRIPTION


******************************************************************************




** Creating circuit file "2.cir" 
** WARNING: THIS AUTOMATICALLY GENERATED FILE MAY BE OVERWRITTEN BY SUBSEQUENT SIMULATIONS

*Libraries: 
* Profile Libraries :
* Local Libraries :
* From [PSPICE NETLIST] section of C:\SPB_Data\cdssetup\OrCAD_PSpice\17.2.0\PSpice.ini file:
.lib "nomd.lib" 

*Analysis directives: 
.TRAN  0 10MS 0 
.OPTIONS ADVCONV
.PROBE64 V(alias(*)) I(alias(*)) W(alias(*)) D(alias(*)) NOISE(alias(*)) 
.INC "..\SCHEMATIC2.net" 



**** INCLUDING SCHEMATIC2.net ****
* source 16
V_V1         N00240 0  
+SIN 0 6 1K 0 0 0
V_V2         N00248 0  
+SIN 0 6 1K 0 0 0
V_V3         X3 0  
+SIN 0 1 1K 0 0 0
E_GAIN1         N00687 0 VALUE {2 * V(N00240)}
E_GAIN2         N00796 0 VALUE {6 * V(N00248)}
E_GAIN3         N00815 0 VALUE {-3 * V(X3)}
E_SUM1         N00701 0 VALUE {V(N00687)+V(N00796)}
E_SUM2         X 0 VALUE {V(N00701)+V(N00815)}
X_INTEG1    X Y SCHEMATIC2_INTEG1 

.subckt SCHEMATIC2_INTEG1 in out  
G_INTEG1         0 $$U_INTEG1 VALUE {V(in)} 
C_INTEG1         $$U_INTEG1 0 {1/1.0} 
R_INTEG1         $$U_INTEG1 0 1G 
E_INTEG1         out 0 VALUE {V($$U_INTEG1)} 
.IC         V($$U_INTEG1) = 0V
.ends SCHEMATIC2_INTEG1

**** RESUMING 2.cir ****
.END

**** 11/16/21 11:41:27 ******* PSpice Lite (March 2016) ******* ID# 10813 ****

 ** Profile: "SCHEMATIC2-2"  [ G:\030\11.16\16-PSpiceFiles\SCHEMATIC2\2.sim ] 


 ****     INITIAL TRANSIENT SOLUTION       TEMPERATURE =   27.000 DEG C


******************************************************************************



 NODE   VOLTAGE     NODE   VOLTAGE     NODE   VOLTAGE     NODE   VOLTAGE


(    X)    0.0000  (    Y)    0.0000  (   X3)    0.0000  (N00240)    0.0000     

(N00248)    0.0000 (N00687)    0.0000 (N00701)    0.0000 (N00796)    0.0000     

(N00815)    0.0000 (X_INTEG1.$$U_INTEG1)    0.0000       




    VOLTAGE SOURCE CURRENTS
    NAME         CURRENT

    V_V1         0.000E+00
    V_V2         0.000E+00
    V_V3         0.000E+00

    TOTAL POWER DISSIPATION   0.00E+00  WATTS



          JOB CONCLUDED

**** 11/16/21 11:41:27 ******* PSpice Lite (March 2016) ******* ID# 10813 ****

 ** Profile: "SCHEMATIC2-2"  [ G:\030\11.16\16-PSpiceFiles\SCHEMATIC2\2.sim ] 


 ****     JOB STATISTICS SUMMARY


******************************************************************************



  Total job time (using Solver 1)   =        0.00
