
**** 11/25/21 13:22:06 ******* PSpice Lite (March 2016) ******* ID# 10813 ****

 ** Profile: "SCHEMATIC1-page_tran"  [ d:\cadence_17.2_orcad\pspice_project\dianzixianlu\exam_1-pspicefiles\schematic1\page_tran.sim 


 ****     CIRCUIT DESCRIPTION


******************************************************************************




** Creating circuit file "page_tran.cir" 
** WARNING: THIS AUTOMATICALLY GENERATED FILE MAY BE OVERWRITTEN BY SUBSEQUENT SIMULATIONS

*Libraries: 
* Profile Libraries :
* Local Libraries :
* From [PSPICE NETLIST] section of C:\SPB_Data\cdssetup\OrCAD_PSpice\17.2.0\PSpice.ini file:
.lib "nomd.lib" 

*Analysis directives: 
.TRAN  0 15m 6m 0.01m 
.OPTIONS ADVCONV
.PROBE64 V(alias(*)) I(alias(*)) W(alias(*)) D(alias(*)) NOISE(alias(*)) 
.INC "..\SCHEMATIC1.net" 



**** INCLUDING SCHEMATIC1.net ****
* source EXAM_1
X_U1A         N00243 N00334 VCC 0 OUT3 LM324
R_R1         N00243 OUT3  20k TC=0,0 
R_R2         N00247 N00243  10k TC=0,0 
R_R3         N00247 VCC  50k TC=0,0 
R_R4         0 N00247  51k TC=0,0 
R_R5         OUT3 N00334  10k TC=0,0 
C_C1         0 N00247  10u  TC=0,0 
C_C2         0 N00334  1n  TC=0,0 
V_V1         VCC 0 12Vdc
C_C6         OUT3 N06818  10u  TC=0,0 
X_U1B         N03409 N03517 VCC 0 N03600 LM324
R_R10         N03418 N03409  10k TC=0,0 
R_R11         N03418 N03409  1k TC=0,0 
R_R12         N03418 VCC  300k TC=0,0 
R_R13         0 N03418  100k TC=0,0 
R_R14         N03517 N03521  10k TC=0,0 
R_R15         N03517 N03542  1k TC=0,0 
C_C9         OUT1 N03521  10u  TC=0,0 
C_C10         UI1 N03542  10u  TC=0,0 
C_C11         0 N03418  10u  TC=0,0 
C_C12         N03600 OUT2  10u  TC=0,0 
R_R16         N03517 N03600  10k TC=0,0 
V_V2         UI1 0  
+SIN 0 0.1 500 0 0 0
R_R17         OUT2 0  1k TC=0,0 
R_R18         OUT1 0  1k TC=0,0 

**** RESUMING page_tran.cir ****
.END

ERROR(ORPSIM-15141): Less than 2 connections at node N06818.

ERROR(ORPSIM-15142): Node N06818 is floating
