
**** 11/15/21 20:59:43 ******* PSpice Lite (March 2016) ******* ID# 10813 ****

 ** Profile: "Expression_element-5"  [ D:\Software\Capture_PSpice\Project\Behavior model creation\Behavior model creation-PSpiceFiles


 ****     CIRCUIT DESCRIPTION


******************************************************************************




** Creating circuit file "5.cir" 
** WARNING: THIS AUTOMATICALLY GENERATED FILE MAY BE OVERWRITTEN BY SUBSEQUENT SIMULATIONS

*Libraries: 
* Profile Libraries :
* Local Libraries :
* From [PSPICE NETLIST] section of C:\SPB_Data\cdssetup\OrCAD_PSpice\17.2.0\PSpice.ini file:
.lib "nomd.lib" 

*Analysis directives: 
.TRAN  0 1s 0 
.OPTIONS ADVCONV
.PROBE64 V(alias(*)) I(alias(*)) W(alias(*)) D(alias(*)) NOISE(alias(*)) 
.INC "..\Expression_element.net" 



**** INCLUDING Expression_element.net ****
* source BEHAVIOR MODEL CREATION
X_INTEG1    IN_ABM OUT_M Expression_element_INTEG1 
E_ABM1         OUT_ABM 0 VALUE { 2*SDT(V(IN_ABM))    }
V_V1         IN_ABM 0  
+SIN 0 1 10 0 0 0

.subckt Expression_element_INTEG1 in out  
G_INTEG1         0 $$U_INTEG1 VALUE {V(in)} 
C_INTEG1         $$U_INTEG1 0 {1/2} 
R_INTEG1         $$U_INTEG1 0 1G 
E_INTEG1         out 0 VALUE {V($$U_INTEG1)} 
.IC         V($$U_INTEG1) = 0V
.ends Expression_element_INTEG1

**** RESUMING 5.cir ****
.END

**** 11/15/21 20:59:43 ******* PSpice Lite (March 2016) ******* ID# 10813 ****

 ** Profile: "Expression_element-5"  [ D:\Software\Capture_PSpice\Project\Behavior model creation\Behavior model creation-PSpiceFiles


 ****     INITIAL TRANSIENT SOLUTION       TEMPERATURE =   27.000 DEG C


******************************************************************************



 NODE   VOLTAGE     NODE   VOLTAGE     NODE   VOLTAGE     NODE   VOLTAGE


(OUT_M)    0.0000  (IN_ABM)    0.0000 (OUT_ABM)    0.0000                       

(X_INTEG1.$$U_INTEG1)    0.0000       




    VOLTAGE SOURCE CURRENTS
    NAME         CURRENT

    V_V1         0.000E+00

    TOTAL POWER DISSIPATION   0.00E+00  WATTS



          JOB CONCLUDED

**** 11/15/21 20:59:43 ******* PSpice Lite (March 2016) ******* ID# 10813 ****

 ** Profile: "Expression_element-5"  [ D:\Software\Capture_PSpice\Project\Behavior model creation\Behavior model creation-PSpiceFiles


 ****     JOB STATISTICS SUMMARY


******************************************************************************



  Total job time (using Solver 1)   =        0.00
