
**** 12/07/21 11:23:04 ******* PSpice Lite (March 2016) ******* ID# 10813 ****

 ** Profile: "SCHEMATIC2-2"  [ G:\030\12.7\13_4-PSpiceFiles\SCHEMATIC2\2.sim ] 


 ****     CIRCUIT DESCRIPTION


******************************************************************************




** Creating circuit file "2.cir" 
** WARNING: THIS AUTOMATICALLY GENERATED FILE MAY BE OVERWRITTEN BY SUBSEQUENT SIMULATIONS

*Libraries: 
* Profile Libraries :
* Local Libraries :
* From [PSPICE NETLIST] section of C:\SPB_Data\cdssetup\OrCAD_PSpice\17.2.0\PSpice.ini file:
.lib "nomd.lib" 

*Analysis directives: 
.TRAN  0 10U 0 
.OPTIONS ADVCONV
.OPTIONS DIGINITSTATE= 0
.PROBE64 V(alias(*)) I(alias(*)) W(alias(*)) D(alias(*)) NOISE(alias(*)) 
.INC "..\SCHEMATIC2.net" 



**** INCLUDING SCHEMATIC2.net ****
* source 13_4
U_DSTM1         STIM(1,1) $G_DPWR $G_DGND CLK IO_STM IO_LEVEL=0 
+ 0 0
+ +2u 1
+REPEAT FOREVER
+ +.5uS 0
+  +.5uS 1
+ ENDREPEAT
X_U1A         CLK $D_LO D1 D2 D3 D4 $G_DPWR $G_DGND 74HC393 PARAMS:
+ IO_LEVEL=0 MNTYMXDLY=0
X_U1B         D4 $D_LO D5 D6 D7 D8 $G_DPWR $G_DGND 74HC393 PARAMS:
+ IO_LEVEL=0 MNTYMXDLY=0
X_U3         D1 D2 D3 D4 D5 D6 D7 D8 $D_LO $D_LO B1 B2 B3 B4 B5 B6 B7 B8
+  $G_DPWR $G_DGND 74HC240 PARAMS:
+ IO_LEVEL=0 MNTYMXDLY=0
X_U2         D1 D2 D3 D4 D5 D6 D7 D8 $D_LO $D_LO A1 A2 A3 A4 A5 A6 A7 A8
+  $G_DPWR $G_DGND 74HC244 PARAMS:
+ IO_LEVEL=0 MNTYMXDLY=0

**** RESUMING 2.cir ****
.END

**** 12/07/21 11:23:04 ******* PSpice Lite (March 2016) ******* ID# 10813 ****

 ** Profile: "SCHEMATIC2-2"  [ G:\030\12.7\13_4-PSpiceFiles\SCHEMATIC2\2.sim ] 


 ****     Digital Gate MODEL PARAMETERS


******************************************************************************




               D0_GATE         
      TPLHMN    0            
      TPLHTY    0            
      TPLHMX    0            
      TPHLMN    0            
      TPHLTY    0            
      TPHLMX    0            


**** 12/07/21 11:23:04 ******* PSpice Lite (March 2016) ******* ID# 10813 ****

 ** Profile: "SCHEMATIC2-2"  [ G:\030\12.7\13_4-PSpiceFiles\SCHEMATIC2\2.sim ] 


 ****     Digital Tri Gate MODEL PARAMETERS


******************************************************************************




               D_HC240         D_HC244         
      TPLHMN    4.000000E-09    5.200000E-09 
      TPLHTY   10.000000E-09   13.000000E-09 
      TPLHMX   25.000000E-09   29.000000E-09 
      TPHLMN    4.000000E-09    5.200000E-09 
      TPHLTY   10.000000E-09   13.000000E-09 
      TPHLMX   25.000000E-09   29.000000E-09 
      TPZHMN    6.000000E-09    6.000000E-09 
      TPZHTY   15.000000E-09   15.000000E-09 
      TPZHMX   38.000000E-09   38.000000E-09 
      TPZLMN    6.000000E-09    6.000000E-09 
      TPZLTY   15.000000E-09   15.000000E-09 
      TPZLMX   38.000000E-09   38.000000E-09 
      TPLZMN    8.800000E-09    6.000000E-09 
      TPLZTY   22.000000E-09   15.000000E-09 
      TPLZMX   38.000000E-09   38.000000E-09 
      TPHZMN    8.800000E-09    6.000000E-09 
      TPHZTY   22.000000E-09   15.000000E-09 
      TPHZMX   38.000000E-09   38.000000E-09 


**** 12/07/21 11:23:04 ******* PSpice Lite (March 2016) ******* ID# 10813 ****

 ** Profile: "SCHEMATIC2-2"  [ G:\030\12.7\13_4-PSpiceFiles\SCHEMATIC2\2.sim ] 


 ****     Digital Edge Triggered FF MODEL PARAMETERS


******************************************************************************




               D0_EFF          
  TPCLKQLHMN    0            
  TPCLKQLHTY    0            
  TPCLKQLHMX    0            
  TPCLKQHLMN    0            
  TPCLKQHLTY    0            
  TPCLKQHLMX    0            
   TPPCQLHMN    0            
   TPPCQLHTY    0            
   TPPCQLHMX    0            
   TPPCQHLMN    0            
   TPPCQHLTY    0            
   TPPCQHLMX    0            
    TWCLKLMN    0            
    TWCLKLTY    0            
    TWCLKLMX    0            
    TWCLKHMN    0            
    TWCLKHTY    0            
    TWCLKHMX    0            
     TWPCLMN    0            
     TWPCLTY    0            
     TWPCLMX    0            
   TSUDCLKMN    0            
   TSUDCLKTY    0            
   TSUDCLKMX    0            
 TSUPCCLKHMN    0            
 TSUPCCLKHTY    0            
 TSUPCCLKHMX    0            
    THDCLKMN    0            
    THDCLKTY    0            
    THDCLKMX    0            
  TSUCECLKMN    0            
  TSUCECLKTY    0            
  TSUCECLKMX    0            
   THCECLKMN    0            
   THCECLKTY    0            
   THCECLKMX    0            


**** 12/07/21 11:23:04 ******* PSpice Lite (March 2016) ******* ID# 10813 ****

 ** Profile: "SCHEMATIC2-2"  [ G:\030\12.7\13_4-PSpiceFiles\SCHEMATIC2\2.sim ] 


 ****     Digital IO  MODEL PARAMETERS


******************************************************************************




               IO_STM          IO_HC           IO_HC_BUS       
        INLD                    3.500000E-12    3.500000E-12 
       OUTLD                                    6.000000E-12 
        DRVL    0              87              57            
        DRVH    0              87              57            
       AtoD1                 AtoD_HC         AtoD_HC         
       AtoD2                 AtoD_HC_NX      AtoD_HC_NX      
       AtoD3                 AtoD_HC         AtoD_HC         
       AtoD4                 AtoD_HC_NX      AtoD_HC_NX      
       DtoA1 DtoA_STM        DtoA_HC         DtoA_HC_BUS     
       DtoA2 DtoA_STM        DtoA_HC         DtoA_HC_BUS     
       DtoA3 DtoA_STM        DtoA_HC_E       DtoA_HC_BUS_E   
       DtoA4 DtoA_STM        DtoA_HC_E       DtoA_HC_BUS_E   
      TSWHL1                    2.742000E-09    2.954000E-09 
      TSWHL2                    2.742000E-09    2.954000E-09 
      TSWHL3                    2.751000E-09    2.947000E-09 
      TSWHL4                    2.751000E-09    2.947000E-09 
      TSWLH1                    2.758000E-09    3.039000E-09 
      TSWLH2                    2.758000E-09    3.039000E-09 
      TSWLH3                    2.763000E-09    2.964000E-09 
      TSWLH4                    2.763000E-09    2.964000E-09 
       TPWRT  100.000000E+03    2.000000E-09    2.000000E-09 



          JOB CONCLUDED

**** 12/07/21 11:23:04 ******* PSpice Lite (March 2016) ******* ID# 10813 ****

 ** Profile: "SCHEMATIC2-2"  [ G:\030\12.7\13_4-PSpiceFiles\SCHEMATIC2\2.sim ] 


 ****     JOB STATISTICS SUMMARY


******************************************************************************



  Total job time                    =         .03
