
**** 11/01/21 22:26:12 ******* PSpice Lite (March 2016) ******* ID# 10813 ****

 ** Profile: "Fourier_analysis-7"  [ D:\Software\Capture_PSpice\Project\Transient analysis and Fourier analysis\Transient analysis an


 ****     CIRCUIT DESCRIPTION


******************************************************************************




** Creating circuit file "7.cir" 
** WARNING: THIS AUTOMATICALLY GENERATED FILE MAY BE OVERWRITTEN BY SUBSEQUENT SIMULATIONS

*Libraries: 
* Profile Libraries :
* Local Libraries :
* From [PSPICE NETLIST] section of C:\SPB_Data\cdssetup\OrCAD_PSpice\17.2.0\PSpice.ini file:
.lib "nomd.lib" 

*Analysis directives: 
.TRAN  0 10m 0 0.01m 
.FOUR 1k 9 V([OUT1]) V([OUT2]) 
.OPTIONS ADVCONV
.PROBE64 V(alias(*)) I(alias(*)) W(alias(*)) D(alias(*)) NOISE(alias(*)) 
.INC "..\Fourier_analysis.net" 



**** INCLUDING Fourier_analysis.net ****
* source TRANSIENT ANALYSIS AND FOURIER ANALYSIS
R_R1         IN1 OUT1  1k TC=0,0 
R_R2         0 OUT1  1k TC=0,0 
R_R3         OUT2 IN2  1k TC=0,0 
R_R4         OUT2 0  1k TC=0,0 
V_V5         IN1 0  
+SIN 0 1 1K 0 0 0
V_V6         IN2 0  
+PULSE 0 1 1m 1n 1n 0.5m 1m

**** RESUMING 7.cir ****
.END

**** 11/01/21 22:26:12 ******* PSpice Lite (March 2016) ******* ID# 10813 ****

 ** Profile: "Fourier_analysis-7"  [ D:\Software\Capture_PSpice\Project\Transient analysis and Fourier analysis\Transient analysis an


 ****     INITIAL TRANSIENT SOLUTION       TEMPERATURE =   27.000 DEG C


******************************************************************************



 NODE   VOLTAGE     NODE   VOLTAGE     NODE   VOLTAGE     NODE   VOLTAGE


(  IN1)    0.0000  (  IN2)    0.0000  ( OUT1)    0.0000  ( OUT2)    0.0000  




    VOLTAGE SOURCE CURRENTS
    NAME         CURRENT

    V_V5         0.000E+00
    V_V6         0.000E+00

    TOTAL POWER DISSIPATION   0.00E+00  WATTS


**** 11/01/21 22:26:12 ******* PSpice Lite (March 2016) ******* ID# 10813 ****

 ** Profile: "Fourier_analysis-7"  [ D:\Software\Capture_PSpice\Project\Transient analysis and Fourier analysis\Transient analysis an


 ****     FOURIER ANALYSIS                 TEMPERATURE =   27.000 DEG C


******************************************************************************



FOURIER COMPONENTS OF TRANSIENT RESPONSE V(OUT1)



 DC COMPONENT =  -1.7530E-05

 HARMONIC   FREQUENCY     FOURIER     NORMALIZED     PHASE     NORMALIZED
    NO         (HZ)      COMPONENT     COMPONENT     (DEG)     PHASE (DEG)

     1    1.0000E+03   4.9983E-01   1.0000E+00  -1.3286E-03   0.0000E+00
     2    2.0000E+03   4.9295E-05   9.8623E-05   9.2222E+00   9.2248E+00
     3    3.0000E+03   1.3787E-05   2.7584E-05   1.0763E+01   1.0767E+01
     4    4.0000E+03   8.1461E-06   1.6298E-05   1.4965E+01   1.4970E+01
     5    5.0000E+03   6.5923E-06   1.3189E-05   2.6900E+01   2.6906E+01
     6    6.0000E+03   5.7690E-06   1.1542E-05   4.3297E+01   4.3305E+01
     7    7.0000E+03   5.8454E-06   1.1695E-05   6.4147E+01   6.4157E+01
     8    8.0000E+03   5.1911E-06   1.0386E-05   8.2439E+01   8.2449E+01
     9    9.0000E+03   5.7885E-06   1.1581E-05   1.0149E+02   1.0150E+02


     TOTAL HARMONIC DISTORTION =   1.0695E-02 PERCENT

**** 11/01/21 22:26:12 ******* PSpice Lite (March 2016) ******* ID# 10813 ****

 ** Profile: "Fourier_analysis-7"  [ D:\Software\Capture_PSpice\Project\Transient analysis and Fourier analysis\Transient analysis an


 ****     FOURIER ANALYSIS                 TEMPERATURE =   27.000 DEG C


******************************************************************************



FOURIER COMPONENTS OF TRANSIENT RESPONSE V(OUT2)



 DC COMPONENT =   2.5248E-01

 HARMONIC   FREQUENCY     FOURIER     NORMALIZED     PHASE     NORMALIZED
    NO         (HZ)      COMPONENT     COMPONENT     (DEG)     PHASE (DEG)

     1    1.0000E+03   3.1832E-01   1.0000E+00   8.9111E-01   0.0000E+00
     2    2.0000E+03   4.9528E-03   1.5559E-02   9.1782E+01   9.0000E+01
     3    3.0000E+03   1.0614E-01   3.3344E-01   2.6733E+00  -6.5990E-08
     4    4.0000E+03   4.9600E-03   1.5582E-02   9.3564E+01   9.0000E+01
     5    5.0000E+03   6.3726E-02   2.0019E-01   4.4555E+00  -3.2969E-07
     6    6.0000E+03   4.9720E-03   1.5619E-02   9.5346E+01   9.0000E+01
     7    7.0000E+03   4.5563E-02   1.4313E-01   6.2377E+00  -9.2207E-07
     8    8.0000E+03   4.9890E-03   1.5673E-02   9.7129E+01   9.0000E+01
     9    9.0000E+03   3.5484E-02   1.1147E-01   8.0200E+00  -1.9728E-06


     TOTAL HARMONIC DISTORTION =   4.3029E+01 PERCENT


          JOB CONCLUDED

**** 11/01/21 22:26:12 ******* PSpice Lite (March 2016) ******* ID# 10813 ****

 ** Profile: "Fourier_analysis-7"  [ D:\Software\Capture_PSpice\Project\Transient analysis and Fourier analysis\Transient analysis an


 ****     JOB STATISTICS SUMMARY


******************************************************************************



  Total job time (using Solver 1)   =         .05
