
**** 11/01/21 22:01:27 ******* PSpice Lite (March 2016) ******* ID# 10813 ****

 ** Profile: "Periodic_piecewise_linear_signa-6"  [ D:\Software\Capture_PSpice\Project\Transient analysis and Fourier analysis\Transi


 ****     CIRCUIT DESCRIPTION


******************************************************************************




** Creating circuit file "6.cir" 
** WARNING: THIS AUTOMATICALLY GENERATED FILE MAY BE OVERWRITTEN BY SUBSEQUENT SIMULATIONS

*Libraries: 
* Profile Libraries :
* Local Libraries :
* From [PSPICE NETLIST] section of C:\SPB_Data\cdssetup\OrCAD_PSpice\17.2.0\PSpice.ini file:
.lib "nomd.lib" 

*Analysis directives: 
.TRAN  0 50ms 0 
.OPTIONS ADVCONV
.PROBE64 V(alias(*)) I(alias(*)) W(alias(*)) D(alias(*)) NOISE(alias(*)) 
.INC "..\Periodic_piecewise_linear_signa.net" 



**** INCLUDING Periodic_piecewise_linear_signa.net ****
* source TRANSIENT ANALYSIS AND FOURIER ANALYSIS
V_V1         PWL-RE-FOR-1 0   PWL   
+ REPEAT FOREVER 
+ (1m,0) (2m,5) 
+ (3m,-5) (4m,0)  
+ ENDREPEAT
V_V2         PWL-RE-FOR-2 0   PWL  VALUE_SCALE_FACTOR=2 
+ REPEAT FOREVER 
+ (1m,0) (2m,5) 
+ (3m,-5) (4m,0)  
+ ENDREPEAT
V_V3         PWL-RE-N1 0   PWL    
+ REPEAT FOR 5
+ (1m,0) 
+ (2m,5) (3m,-5) 
+ (4m,0)  
+ ENDREPEAT
V_V4         PWL-RE-N2 0   PWL TIME_SCALE_FACTOR=2   
+ REPEAT FOR 5
+ (1m,0) 
+ (2m,5) (3m,-5) 
+ (4m,0)  
+ ENDREPEAT

**** RESUMING 6.cir ****
.END

**** 11/01/21 22:01:27 ******* PSpice Lite (March 2016) ******* ID# 10813 ****

 ** Profile: "Periodic_piecewise_linear_signa-6"  [ D:\Software\Capture_PSpice\Project\Transient analysis and Fourier analysis\Transi


 ****     INITIAL TRANSIENT SOLUTION       TEMPERATURE =   27.000 DEG C


******************************************************************************



 NODE   VOLTAGE     NODE   VOLTAGE     NODE   VOLTAGE     NODE   VOLTAGE


(PWL-RE-N1)    0.0000                 (PWL-RE-N2)    0.0000                     

(PWL-RE-FOR-1)    0.0000              (PWL-RE-FOR-2)    0.0000              




    VOLTAGE SOURCE CURRENTS
    NAME         CURRENT

    V_V1         0.000E+00
    V_V2         0.000E+00
    V_V3         0.000E+00
    V_V4         0.000E+00

    TOTAL POWER DISSIPATION   0.00E+00  WATTS



          JOB CONCLUDED

**** 11/01/21 22:01:27 ******* PSpice Lite (March 2016) ******* ID# 10813 ****

 ** Profile: "Periodic_piecewise_linear_signa-6"  [ D:\Software\Capture_PSpice\Project\Transient analysis and Fourier analysis\Transi


 ****     JOB STATISTICS SUMMARY


******************************************************************************



  Total job time (using Solver 1)   =         .02
