
**** 03/15/22 09:59:22 ****** PSpice 17.2.0 (March 2016) ****** ID# 0 ********

 ** Profile: "Voltage controlled oscillator-1"  [ E:\Data\Simulation_Project\Shielding_circuit\Shielding_circuit-PSpiceFiles\Voltage 


 ****     CIRCUIT DESCRIPTION


******************************************************************************




** Creating circuit file "1.cir" 
** WARNING: THIS AUTOMATICALLY GENERATED FILE MAY BE OVERWRITTEN BY SUBSEQUENT SIMULATIONS

*Libraries: 
* Profile Libraries :
* Local Libraries :
* From [PSPICE NETLIST] section of C:\Users\007\cdssetup\OrCAD_PSpice\17.2.0\PSpice.ini file:
.lib "nom.lib" 

*Analysis directives: 
.TRAN  0 10m 0 
.OPTIONS ADVCONV
.PROBE64 V(alias(*)) I(alias(*)) W(alias(*)) D(alias(*)) NOISE(alias(*)) 
.INC "..\Voltage controlled oscillator.net" 



**** INCLUDING "Voltage controlled oscillator.net" ****
* source SHIELDING_CIRCUIT
X_U1         0 N00198 OUT1 N00174 N00106 N00198 N00256 N00174 555B
C_C3         0 N00106  1n  TC=0,0 
R_R3         N00198 N00256  1k TC=0,0 
C_C1         0 N00256  1n  TC=0,0 
R_R4         N00617 N00256  1k TC=0,0 
R_R2         N00538 N00256  1k TC=0,0 
R_R1         VCC N00538  1k TC=0,0 
C_C2         N00538 OUT2  33u  TC=0,0 
Q_Q1         VCC N00617 N00726 Q2N3414
R_R5         N00726 0  1k TC=0,0 
V_V1         VCC 0 +5Vdc

**** RESUMING 1.cir ****
.END

ERROR(ORPSIM-15141): Less than 2 connections at node OUT2.

ERROR(ORPSIM-15142): Node OUT2 is floating
